#======================================================================

# CRYSTAL DATA

#----------------------------------------------------------------------

data_VESTA_phase_1


_pd_phase_name                         MOF
_cell_length_a                         14.88000
_cell_length_b                         15.94400
_cell_length_c                         15.95300
_cell_angle_alpha                      120.02700
_cell_angle_beta                       90.00000
_cell_angle_gamma                      90.00600
_symmetry_space_group_name_H-M         "P 1"
_symmetry_Int_Tables_number            1

loop_
_symmetry_equiv_pos_as_xyz
   "x, y, z"

loop_
   _atom_site_label
   _atom_site_occupancy
   _atom_site_fract_x
   _atom_site_fract_y
   _atom_site_fract_z
   _atom_site_adp_type
   _atom_site_B_iso_or_equiv
   _atom_site_type_symbol
    H   1.0     0.508313     0.715620     0.060914  Biso 1.000000     H
    H   1.0     0.125069     0.710322     0.175869  Biso 1.000000     H
    H   1.0     0.340028     0.557675     0.121055  Biso 1.000000     H
    H   1.0     0.072210     0.211303     0.473857  Biso 1.000000     H
    H   1.0     0.901917     0.242652     0.791300  Biso 1.000000     H
    H   1.0     0.000000     0.563812     0.442265  Biso 1.000000     H
    H   1.0     0.937355     0.003970     0.382157  Biso 1.000000     H
    H   1.0     0.625054     0.289632     0.824113  Biso 1.000000     H
    H   1.0     0.125671     0.548663     0.339638  Biso 1.000000     H
    H   1.0     0.239866     0.613572     0.254152  Biso 1.000000     H
    H   1.0     0.841479     0.939377     0.655284  Biso 1.000000     H
    H   1.0     0.777403     0.675104     0.897776  Biso 1.000000     H
    H   1.0     0.444400     0.222341     0.324612  Biso 1.000000     H
    H   1.0     0.774595     0.616021     0.481220  Biso 1.000000     H
    H   1.0     0.107304     0.519127     0.134976  Biso 1.000000     H
    H   1.0     0.738976     0.262705     0.788874  Biso 1.000000     H
    H   1.0     0.770713     0.381954     0.377673  Biso 1.000000     H
    H   1.0     0.341468     0.060597     0.344722  Biso 1.000000     H
    H   1.0     0.292658     0.356963     0.275032  Biso 1.000000     H
    H   1.0     0.459566     0.081428     0.356574  Biso 1.000000     H
    H   1.0     0.610918     0.897674     0.222525  Biso 1.000000     H
    H   1.0     0.274614     0.383941     0.518774  Biso 1.000000     H
    H   1.0     0.791851     0.465835     0.289817  Biso 1.000000     H
    H   1.0     0.792475     0.791465     0.451995  Biso 1.000000     H
    H   1.0     0.397640     0.081261     0.451864  Biso 1.000000     H
    H   1.0     0.770512     0.509684     0.757350  Biso 1.000000     H
    H   1.0     0.068102     0.451131     0.242147  Biso 1.000000     H
    H   1.0     0.626409     0.724835     0.081728  Biso 1.000000     H
    H   1.0     0.906721     0.641059     0.386165  Biso 1.000000     H
    H   1.0     0.739867     0.386420     0.745865  Biso 1.000000     H
    H   1.0     0.110919     0.102314     0.777481  Biso 1.000000     H
    H   1.0     0.717519     0.046362     0.486637  Biso 1.000000     H
    H   1.0     0.607316     0.480836     0.865027  Biso 1.000000     H
    H   1.0     0.173544     0.121766     0.563780  Biso 1.000000     H
    H   1.0     0.291872     0.534132     0.710187  Biso 1.000000     H
    H   1.0     0.406730     0.358930     0.613844  Biso 1.000000     H
    H   1.0     0.897652     0.918727     0.548151  Biso 1.000000     H
    H   1.0     0.658903     0.688868     0.893846  Biso 1.000000     H
    H   1.0     0.654624     0.502766     0.158974  Biso 1.000000     H
    H   1.0     0.792663     0.643034     0.724974  Biso 1.000000     H
    H   1.0     0.277391     0.324896     0.102240  Biso 1.000000     H
    H   1.0     0.625665     0.451306     0.660367  Biso 1.000000     H
    H   1.0     0.735014     0.791241     0.549385  Biso 1.000000     H
    H   1.0     0.492403     0.893534     0.204861  Biso 1.000000     H
    H   1.0     0.174563     0.345183     0.284088  Biso 1.000000     H
    H   1.0     0.840033     0.442304     0.878958  Biso 1.000000     H
    H   1.0     0.126423     0.275149     0.918283  Biso 1.000000     H
    H   1.0     0.217540     0.953645     0.513374  Biso 1.000000     H
    H   1.0     0.270738     0.618019     0.622336  Biso 1.000000     H
    H   1.0     0.325911     0.204557     0.310724  Biso 1.000000     H
    H   1.0     0.550527     0.486579     0.440015  Biso 1.000000     H
    H   1.0     0.506841     0.436183     0.557741  Biso 1.000000     H
    H   1.0     0.104350     0.242745     0.752549  Biso 1.000000     H
    H   1.0     0.073505     0.255022     0.640729  Biso 1.000000     H
    H   1.0     0.992389     0.106434     0.795135  Biso 1.000000     H
    H   1.0     0.230816     0.452367     0.370597  Biso 1.000000     H
    H   1.0     0.050552     0.513406     0.559977  Biso 1.000000     H
    H   1.0     0.441491     0.864747     0.383829  Biso 1.000000     H
    H   1.0     0.292472     0.208507     0.548009  Biso 1.000000     H
    H   1.0     0.703828     0.604942     0.925046  Biso 1.000000     H
    H   1.0     0.401919     0.757309     0.208701  Biso 1.000000     H
    H   1.0     0.459641     0.659886     0.208680  Biso 1.000000     H
    H   1.0     0.370777     0.319786     0.394692  Biso 1.000000     H
    H   1.0     0.673538     0.878232     0.436246  Biso 1.000000     H
    H   1.0     0.730812     0.547615     0.629410  Biso 1.000000     H
    H   1.0     0.674568     0.654789     0.715912  Biso 1.000000     H
    H   1.0     0.064728     0.370863     0.918606  Biso 1.000000     H
    H   1.0     0.988771     0.840911     0.344017  Biso 1.000000     H
    H   1.0     0.825914     0.795413     0.689278  Biso 1.000000     H
    H   1.0     0.604339     0.757246     0.247464  Biso 1.000000     H
    H   1.0     0.238992     0.737269     0.211119  Biso 1.000000     H
    H   1.0     0.603691     0.377757     0.995826  Biso 1.000000     H
    H   1.0     0.958341     0.175895     0.465825  Biso 1.000000     H
    H   1.0     0.103710     0.622195     0.004152  Biso 1.000000     H
    H   1.0     0.959575     0.918572     0.643447  Biso 1.000000     H
    H   1.0     0.437404     0.247273     0.489895  Biso 1.000000     H
    H   1.0     0.405726     0.525759     0.737258  Biso 1.000000     H
    H   1.0     0.537439     0.924907     0.319970  Biso 1.000000     H
    H   1.0     0.383537     0.439764     0.952817  Biso 1.000000     H
    H   1.0     0.270507     0.490313     0.242664  Biso 1.000000     H
    H   1.0     0.158890     0.311107     0.106155  Biso 1.000000     H
    H   1.0     0.941460     0.135224     0.616172  Biso 1.000000     H
    H   1.0     0.821794     0.343754     0.502510  Biso 1.000000     H
    H   1.0     0.437365     0.995974     0.617840  Biso 1.000000     H
    H   1.0     0.037438     0.075073     0.680031  Biso 1.000000     H
    H   1.0     0.564700     0.629116     0.081407  Biso 1.000000     H
    H   1.0     0.937406     0.752722     0.510120  Biso 1.000000     H
    H   1.0     0.573499     0.744971     0.359283  Biso 1.000000     H
    H   1.0     0.154650     0.497198     0.841012  Biso 1.000000     H
    H   1.0     0.870769     0.680192     0.605311  Biso 1.000000     H
    H   1.0     0.235010     0.208716     0.450613  Biso 1.000000     H
    H   1.0     0.905703     0.474230     0.262752  Biso 1.000000     H
    H   1.0     0.321808     0.656211     0.497486  Biso 1.000000     H
    H   1.0     0.883531     0.560228     0.047202  Biso 1.000000     H
    H   1.0     0.568107     0.548827     0.757856  Biso 1.000000     H
    H   1.0     0.203822     0.395042     0.074960  Biso 1.000000     H
    H   1.0     0.572201     0.788669     0.526151  Biso 1.000000     H
    H   1.0     0.959648     0.340085     0.791327  Biso 1.000000     H
    H   1.0     0.944401     0.777646     0.675401  Biso 1.000000     H
    H   1.0     0.458347     0.824052     0.534169  Biso 1.000000     H
    H   1.0     0.488772     0.159046     0.655971  Biso 1.000000     H
    H   1.0     0.008329     0.284348     0.939088  Biso 1.000000     H
    C   1.0     0.666709     0.415788     0.003158  Biso 1.000000     C
    C   1.0     0.166733     0.584173     0.996830  Biso 1.000000     C
    C   1.0     0.155855     0.968351     0.486368  Biso 1.000000     C
    C   1.0     0.108989     0.564354     0.214386  Biso 1.000000     C
    C   1.0     0.684921     0.632990     0.384811  Biso 1.000000     C
    C   1.0     0.695047     0.485277     0.095299  Biso 1.000000     C
    C   1.0     0.608993     0.435611     0.785617  Biso 1.000000     C
    C   1.0     0.379910     0.211527     0.441084  Biso 1.000000     C
    C   1.0     0.797209     0.450885     0.938288  Biso 1.000000     C
    C   1.0     0.630861     0.937722     0.487086  Biso 1.000000     C
    C   1.0     0.625570     0.498983     0.739624  Biso 1.000000     C
    C   1.0     0.130867     0.062266     0.512930  Biso 1.000000     C
    C   1.0     0.195070     0.514691     0.904692  Biso 1.000000     C
    C   1.0     0.964130     0.512911     0.450769  Biso 1.000000     C
    C   1.0     0.895504     0.897583     0.604006  Biso 1.000000     C
    C   1.0     0.713150     0.635891     0.877701  Biso 1.000000     C
    C   1.0     0.017873     0.615802     0.248740  Biso 1.000000     C
    C   1.0     0.292481     0.240213     0.500464  Biso 1.000000     C
    C   1.0     0.712981     0.558457     0.770411  Biso 1.000000     C
    C   1.0     0.776067     0.650300     0.436093  Biso 1.000000     C
    C   1.0     0.333762     0.587277     0.584359  Biso 1.000000     C
    C   1.0     0.356400     0.499085     0.678117  Biso 1.000000     C
    C   1.0     0.500456     0.003099     0.587138  Biso 1.000000     C
    C   1.0     0.000469     0.996861     0.412865  Biso 1.000000     C
    C   1.0     0.546769     0.770157     0.211720  Biso 1.000000     C
    C   1.0     0.517870     0.384155     0.751259  Biso 1.000000     C
    C   1.0     0.862165     0.390006     0.485039  Biso 1.000000     C
    C   1.0     0.297209     0.549091     0.061719  Biso 1.000000     C
    C   1.0     0.942873     0.214674     0.650340  Biso 1.000000     C
    C   1.0     0.212976     0.441527     0.229597  Biso 1.000000     C
    C   1.0     0.385227     0.525206     0.603202  Biso 1.000000     C
    C   1.0     0.885212     0.474778     0.396806  Biso 1.000000     C
    C   1.0     0.459441     0.739183     0.240301  Biso 1.000000     C
    C   1.0     0.022963     0.178975     0.500758  Biso 1.000000     C
    C   1.0     0.380118     0.241440     0.363736  Biso 1.000000     C
    C   1.0     0.718276     0.396888     0.922314  Biso 1.000000     C
    C   1.0     0.728611     0.603526     0.706432  Biso 1.000000     C
    C   1.0     0.655837     0.031642     0.513641  Biso 1.000000     C
    C   1.0     0.362177     0.609966     0.514960  Biso 1.000000     C
    C   1.0     0.228608     0.396458     0.293574  Biso 1.000000     C
    C   1.0     0.029073     0.904773     0.390179  Biso 1.000000     C
    C   1.0     0.880118     0.758540     0.636271  Biso 1.000000     C
    C   1.0     0.529057     0.095191     0.609817  Biso 1.000000     C
    C   1.0     0.218283     0.603077     0.077683  Biso 1.000000     C
    C   1.0     0.546733     0.877499     0.241659  Biso 1.000000     C
    C   1.0     0.213140     0.364095     0.122306  Biso 1.000000     C
    C   1.0     0.125568     0.500986     0.260380  Biso 1.000000     C
    C   1.0     0.851576     0.248415     0.633118  Biso 1.000000     C
    C   1.0     0.184933     0.366980     0.615183  Biso 1.000000     C
    C   1.0     0.522956     0.820991     0.499249  Biso 1.000000     C
    C   1.0     0.321927     0.481660     0.967786  Biso 1.000000     C
    C   1.0     0.051872     0.077951     0.474842  Biso 1.000000     C
    C   1.0     0.879912     0.788454     0.558923  Biso 1.000000     C
    C   1.0     0.988936     0.486360     0.518092  Biso 1.000000     C
    C   1.0     0.959438     0.260788     0.759702  Biso 1.000000     C
    C   1.0     0.351584     0.751557     0.366890  Biso 1.000000     C
    C   1.0     0.189568     0.678173     0.178756  Biso 1.000000     C
    C   1.0     0.046780     0.229822     0.788285  Biso 1.000000     C
    C   1.0     0.062425     0.293791     0.897358  Biso 1.000000     C
    C   1.0     0.562407     0.706186     0.102649  Biso 1.000000     C
    C   1.0     0.833744     0.412699     0.415647  Biso 1.000000     C
    C   1.0     0.046736     0.122480     0.758343  Biso 1.000000     C
    C   1.0     0.488935     0.513624     0.481905  Biso 1.000000     C
    C   1.0     0.821916     0.518323     0.032223  Biso 1.000000     C
    C   1.0     0.395495     0.102402     0.396006  Biso 1.000000     C
    C   1.0     0.442886     0.785297     0.349663  Biso 1.000000     C
    C   1.0     0.551866     0.922021     0.525169  Biso 1.000000     C
    C   1.0     0.792480     0.759754     0.499537  Biso 1.000000     C
    C   1.0     0.464134     0.487077     0.549235  Biso 1.000000     C
    C   1.0     0.689557     0.321793     0.821237  Biso 1.000000     C
    C   1.0     0.856382     0.500894     0.321891  Biso 1.000000     C
    C   1.0     0.276076     0.349664     0.563903  Biso 1.000000     C
    N   1.0     0.012826     0.246250     0.606209  Biso 1.000000     N
    N   1.0     0.606268     0.109771     0.574599  Biso 1.000000     N
    N   1.0     0.179290     0.639781     0.245794  Biso 1.000000     N
    N   1.0     0.512820     0.753724     0.393794  Biso 1.000000     N
    N   1.0     0.106287     0.890209     0.425400  Biso 1.000000     N
    N   1.0     0.439271     0.574645     0.464937  Biso 1.000000     N
    N   1.0     0.939270     0.425329     0.535056  Biso 1.000000     N
    N   1.0     0.846079     0.606400     0.360455  Biso 1.000000     N
    N   1.0     0.346090     0.393577     0.639549  Biso 1.000000     N
    N   1.0     0.272154     0.464613     0.889864  Biso 1.000000     N
    N   1.0     0.679287     0.360195     0.754208  Biso 1.000000     N
    N   1.0     0.772137     0.535364     0.110137  Biso 1.000000     N
    O   1.0     0.450269     0.423678     0.805499  Biso 1.000000     O
    O   1.0     0.617410     0.618250     0.424338  Biso 1.000000     O
    O   1.0     0.284383     0.806232     0.381385  Biso 1.000000     O
    O   1.0     0.848476     0.330732     0.638646  Biso 1.000000     O
    O   1.0     0.117427     0.381724     0.575657  Biso 1.000000     O
    O   1.0     0.515571     0.307614     0.668690  Biso 1.000000     O
    O   1.0     0.682420     0.638802     0.308157  Biso 1.000000     O
    O   1.0     0.950250     0.576275     0.194498  Biso 1.000000     O
    O   1.0     0.784361     0.193747     0.618636  Biso 1.000000     O
    O   1.0     0.015584     0.692343     0.331310  Biso 1.000000     O
    O   1.0     0.348469     0.669233     0.361345  Biso 1.000000     O
    O   1.0     0.182428     0.361153     0.691829  Biso 1.000000     O
   Zn   1.0     0.984218     0.391240     0.638086  Biso 1.000000    Zn
   Zn   1.0     0.651870     0.246976     0.608891  Biso 1.000000    Zn
   Zn   1.0     0.484221     0.608730     0.361902  Biso 1.000000    Zn
   Zn   1.0     0.151880     0.753009     0.391112  Biso 1.000000    Zn
   Zn   1.0     0.316751     0.361353     0.752464  Biso 1.000000    Zn
   Zn   1.0     0.816742     0.638618     0.247540  Biso 1.000000    Zn
   Br   1.0     0.478932     0.471432     0.201788  Biso 1.000000    Br
   Br   1.0     0.312140     0.201070     0.729437  Biso 1.000000    Br
   Br   1.0     0.146293     0.730265     0.528403  Biso 1.000000    Br
   Br   1.0     0.646271     0.269722     0.471604  Biso 1.000000    Br
   Br   1.0     0.978954     0.528538     0.798203  Biso 1.000000    Br
   Br   1.0     0.812143     0.798902     0.270570  Biso 1.000000    Br
