#======================================================================

# CRYSTAL DATA

#----------------------------------------------------------------------

data_VESTA_phase_1


_pd_phase_name                         MOF
_cell_length_a                         15.91500
_cell_length_b                         15.91500
_cell_length_c                         16.43600
_cell_angle_alpha                      105.32200
_cell_angle_beta                       105.32100
_cell_angle_gamma                      117.01400
_symmetry_space_group_name_H-M         "P 1"
_symmetry_Int_Tables_number            1

loop_
_symmetry_equiv_pos_as_xyz
   "x, y, z"

loop_
   _atom_site_label
   _atom_site_occupancy
   _atom_site_fract_x
   _atom_site_fract_y
   _atom_site_fract_z
   _atom_site_adp_type
   _atom_site_B_iso_or_equiv
   _atom_site_type_symbol
    H   1.0     0.207645     0.507449     0.809479  Biso 1.000000     H
    H   1.0     0.263642     0.682428     0.928432  Biso 1.000000     H
    H   1.0     0.121465     0.705297     0.948647  Biso 1.000000     H
    H   1.0     0.934682     0.555037     0.850873  Biso 1.000000     H
    H   1.0     0.383520     0.149061     0.256752  Biso 1.000000     H
    H   1.0     0.438228     0.253319     0.169127  Biso 1.000000     H
    H   1.0     0.627774     0.341805     0.193111  Biso 1.000000     H
    H   1.0     0.749544     0.317885     0.300659  Biso 1.000000     H
    H   1.0     0.246124     0.331117     0.574659  Biso 1.000000     H
    H   1.0     0.205317     0.351965     0.473644  Biso 1.000000     H
    H   1.0     0.265400     0.453926     0.590656  Biso 1.000000     H
    H   1.0     0.535001     0.039225     0.715525  Biso 1.000000     H
    H   1.0     0.426642     0.042352     0.651288  Biso 1.000000     H
    H   1.0     0.427062     0.928315     0.607257  Biso 1.000000     H
    H   1.0     0.766331     0.881980     0.493264  Biso 1.000000     H
    H   1.0     0.814537     0.923991     0.415645  Biso 1.000000     H
    H   1.0     0.905936     0.961899     0.530042  Biso 1.000000     H
    H   1.0     0.191210     0.162988     0.704492  Biso 1.000000     H
    H   1.0     0.088198     0.160030     0.622044  Biso 1.000000     H
    H   1.0     0.203866     0.282343     0.708570  Biso 1.000000     H
    H   1.0     0.601845     0.302054     0.809489  Biso 1.000000     H
    H   1.0     0.664800     0.246029     0.928443  Biso 1.000000     H
    H   1.0     0.827189     0.243372     0.948652  Biso 1.000000     H
    H   1.0     0.916174     0.295857     0.850873  Biso 1.000000     H
    H   1.0     0.873226     0.107709     0.256755  Biso 1.000000     H
    H   1.0     0.730882     0.915806     0.169132  Biso 1.000000     H
    H   1.0     0.565309     0.851296     0.193105  Biso 1.000000     H
    H   1.0     0.551091     0.982769     0.300653  Biso 1.000000     H
    H   1.0     0.328551     0.243558     0.574667  Biso 1.000000     H
    H   1.0     0.268341     0.121695     0.473651  Biso 1.000000     H
    H   1.0     0.325265     0.136745     0.590663  Biso 1.000000     H
    H   1.0     0.180519     0.676316     0.715514  Biso 1.000000     H
    H   1.0     0.224641     0.608948     0.651277  Biso 1.000000     H
    H   1.0     0.180197     0.678933     0.607244  Biso 1.000000     H
    H   1.0     0.726908     0.611275     0.493253  Biso 1.000000     H
    H   1.0     0.601090     0.491642     0.415644  Biso 1.000000     H
    H   1.0     0.624086     0.568138     0.530041  Biso 1.000000     H
    H   1.0     0.513300     0.541534     0.704501  Biso 1.000000     H
    H   1.0     0.533860     0.462041     0.622046  Biso 1.000000     H
    H   1.0     0.504725     0.426258     0.708579  Biso 1.000000     H
    H   1.0     0.257448     0.457640     0.309489  Biso 1.000000     H
    H   1.0     0.432425     0.513639     0.428444  Biso 1.000000     H
    H   1.0     0.455293     0.371462     0.448659  Biso 1.000000     H
    H   1.0     0.305034     0.184701     0.350889  Biso 1.000000     H
    H   1.0     0.899036     0.633515     0.756742  Biso 1.000000     H
    H   1.0     0.003316     0.688232     0.669114  Biso 1.000000     H
    H   1.0     0.091812     0.877781     0.693095  Biso 1.000000     H
    H   1.0     0.067885     0.999547     0.800642  Biso 1.000000     H
    H   1.0     0.081106     0.496103     0.074663  Biso 1.000000     H
    H   1.0     0.101976     0.455318     0.973633  Biso 1.000000     H
    H   1.0     0.203920     0.515391     0.090670  Biso 1.000000     H
    H   1.0     0.789196     0.784993     0.215536  Biso 1.000000     H
    H   1.0     0.792324     0.676633     0.151297  Biso 1.000000     H
    H   1.0     0.678310     0.677050     0.107266  Biso 1.000000     H
    H   1.0     0.631984     0.016349     0.993242  Biso 1.000000     H
    H   1.0     0.673994     0.064559     0.915625  Biso 1.000000     H
    H   1.0     0.711897     0.155944     0.030046  Biso 1.000000     H
    H   1.0     0.912956     0.441193     0.204498  Biso 1.000000     H
    H   1.0     0.909997     0.338180     0.122047  Biso 1.000000     H
    H   1.0     0.032333     0.453848     0.208576  Biso 1.000000     H
    H   1.0     0.052050     0.851836     0.309497  Biso 1.000000     H
    H   1.0    -0.003972     0.914794     0.428456  Biso 1.000000     H
    H   1.0    -0.006629     0.077207     0.448668  Biso 1.000000     H
    H   1.0     0.045859     0.166194     0.350891  Biso 1.000000     H
    H   1.0     0.857690     0.123246     0.756744  Biso 1.000000     H
    H   1.0     0.665813     0.980888     0.669121  Biso 1.000000     H
    H   1.0     0.601309     0.815326     0.693109  Biso 1.000000     H
    H   1.0     0.732777     0.801101     0.800651  Biso 1.000000     H
    H   1.0     0.993542     0.578546     0.074678  Biso 1.000000     H
    H   1.0     0.871685     0.518346     0.973647  Biso 1.000000     H
    H   1.0     0.886731     0.575262     0.090681  Biso 1.000000     H
    H   1.0     0.426314     0.430515     0.215526  Biso 1.000000     H
    H   1.0     0.358949     0.474638     0.151291  Biso 1.000000     H
    H   1.0     0.428931     0.430190     0.107254  Biso 1.000000     H
    H   1.0     0.361252     0.976900     0.993220  Biso 1.000000     H
    H   1.0     0.241638     0.851072     0.915606  Biso 1.000000     H
    H   1.0     0.318110     0.874066     0.030031  Biso 1.000000     H
    H   1.0     0.291527     0.763290     0.204507  Biso 1.000000     H
    H   1.0     0.212041     0.783859     0.122061  Biso 1.000000     H
    H   1.0     0.176250     0.754711     0.208586  Biso 1.000000     H
    C   1.0     0.150385     0.521998     0.821722  Biso 1.000000     C
    C   1.0     0.180345     0.618491     0.887041  Biso 1.000000     C
    C   1.0     0.102054     0.631133     0.898359  Biso 1.000000     C
    C   1.0     0.996991     0.546934     0.843456  Biso 1.000000     C
    C   1.0     0.973122     0.452594     0.779150  Biso 1.000000     C
    C   1.0     0.463764     0.188525     0.264448  Biso 1.000000     C
    C   1.0     0.495325     0.246707     0.215756  Biso 1.000000     C
    C   1.0     0.599617     0.294611     0.229317  Biso 1.000000     C
    C   1.0     0.668009     0.281637     0.289253  Biso 1.000000     C
    C   1.0     0.630079     0.221399     0.335160  Biso 1.000000     C
    C   1.0     0.105151     0.328965     0.544502  Biso 1.000000     C
    C   1.0     0.211711     0.368657     0.544790  Biso 1.000000     C
    C   1.0     0.532326     0.057038     0.588696  Biso 1.000000     C
    C   1.0     0.477750     0.014942     0.645362  Biso 1.000000     C
    C   1.0     0.830545     0.045664     0.526445  Biso 1.000000     C
    C   1.0     0.829509     0.946973     0.489858  Biso 1.000000     C
    C   1.0     0.098451     0.201681     0.760874  Biso 1.000000     C
    C   1.0     0.149211     0.200969     0.695098  Biso 1.000000     C
    C   1.0     0.671350     0.299750     0.821731  Biso 1.000000     C
    C   1.0     0.706705     0.268574     0.887050  Biso 1.000000     C
    C   1.0     0.796312     0.267249     0.898364  Biso 1.000000     C
    C   1.0     0.846449     0.296545     0.843459  Biso 1.000000     C
    C   1.0     0.806015     0.326579     0.779152  Biso 1.000000     C
    C   1.0     0.800686     0.075936     0.264463  Biso 1.000000     C
    C   1.0     0.720421     0.969048     0.215775  Biso 1.000000     C
    C   1.0     0.629673     0.934693     0.229309  Biso 1.000000     C
    C   1.0     0.621230     0.007624     0.289265  Biso 1.000000     C
    C   1.0     0.705068     0.113766     0.335154  Biso 1.000000     C
    C   1.0     0.439365     0.215560     0.544505  Biso 1.000000     C
    C   1.0     0.333091     0.176146     0.544795  Biso 1.000000     C
    C   1.0     0.056373     0.531667     0.588692  Biso 1.000000     C
    C   1.0     0.167609     0.630434     0.645352  Biso 1.000000     C
    C   1.0     0.695873     0.480787     0.526431  Biso 1.000000     C
    C   1.0     0.660330     0.542879     0.489855  Biso 1.000000     C
    C   1.0     0.662436     0.559216     0.760881  Biso 1.000000     C
    C   1.0     0.545904     0.494157     0.695102  Biso 1.000000     C
    C   1.0     0.271997     0.400379     0.321732  Biso 1.000000     C
    C   1.0     0.368489     0.430342     0.387052  Biso 1.000000     C
    C   1.0     0.381128     0.352051     0.398375  Biso 1.000000     C
    C   1.0     0.296932     0.247010     0.343468  Biso 1.000000     C
    C   1.0     0.202592     0.223137     0.279163  Biso 1.000000     C
    C   1.0     0.938518     0.713763     0.764449  Biso 1.000000     C
    C   1.0     0.996701     0.745339     0.715762  Biso 1.000000     C
    C   1.0     0.044604     0.849617     0.729289  Biso 1.000000     C
    C   1.0     0.031671     0.918022     0.789260  Biso 1.000000     C
    C   1.0     0.971390     0.880077     0.835151  Biso 1.000000     C
    C   1.0     0.078961     0.355136     0.044510  Biso 1.000000     C
    C   1.0     0.118654     0.461696     0.044797  Biso 1.000000     C
    C   1.0     0.807013     0.782318     0.088708  Biso 1.000000     C
    C   1.0     0.764915     0.727742     0.145373  Biso 1.000000     C
    C   1.0     0.795637     0.080555     0.026461  Biso 1.000000     C
    C   1.0     0.696977     0.079529     0.989837  Biso 1.000000     C
    C   1.0     0.951657     0.348443     0.260886  Biso 1.000000     C
    C   1.0     0.950935     0.399192     0.195101  Biso 1.000000     C
    C   1.0     0.049744     0.921340     0.321739  Biso 1.000000     C
    C   1.0     0.018571     0.956698     0.387062  Biso 1.000000     C
    C   1.0     0.017251     0.046332     0.398382  Biso 1.000000     C
    C   1.0     0.046541     0.096465     0.343473  Biso 1.000000     C
    C   1.0     0.076576     0.056031     0.279165  Biso 1.000000     C
    C   1.0     0.825921     0.050701     0.764445  Biso 1.000000     C
    C   1.0     0.719052     0.970425     0.715761  Biso 1.000000     C
    C   1.0     0.684709     0.879682     0.729302  Biso 1.000000     C
    C   1.0     0.757614     0.871239     0.789259  Biso 1.000000     C
    C   1.0     0.863759     0.955073     0.835158  Biso 1.000000     C
    C   1.0     0.965535     0.689356     0.044517  Biso 1.000000     C
    C   1.0     0.926130     0.583086     0.044810  Biso 1.000000     C
    C   1.0     0.281672     0.306365     0.088702  Biso 1.000000     C
    C   1.0     0.380433     0.417605     0.145363  Biso 1.000000     C
    C   1.0     0.230822     0.945898     0.026478  Biso 1.000000     C
    C   1.0     0.292854     0.910314     0.989815  Biso 1.000000     C
    C   1.0     0.309215     0.912432     0.260885  Biso 1.000000     C
    C   1.0     0.244152     0.795896     0.195114  Biso 1.000000     C
    C   1.0     0.857742     0.357760     0.715497  Biso 1.000000     C
    C   1.0     0.700088     0.200095     0.400197  Biso 1.000000     C
    C   1.0     0.107758     0.107757     0.215511  Biso 1.000000     C
    C   1.0     0.950098     0.950096     0.900193  Biso 1.000000     C
    N   1.0     0.048442     0.440291     0.769345  Biso 1.000000     N
    N   1.0     0.530051     0.176731     0.323163  Biso 1.000000     N
    N   1.0     0.720913     0.329075     0.769348  Biso 1.000000     N
    N   1.0     0.793092     0.146452     0.323142  Biso 1.000000     N
    N   1.0     0.190289     0.298435     0.269361  Biso 1.000000     N
    N   1.0     0.926681     0.780037     0.823127  Biso 1.000000     N
    N   1.0     0.079078     0.970910     0.269364  Biso 1.000000     N
    N   1.0     0.896430     0.043114     0.823140  Biso 1.000000     N
    O   1.0     0.856455     0.272502     0.660638  Biso 1.000000     O
    O   1.0     0.652190     0.163697     0.454961  Biso 1.000000     O
    O   1.0     0.023359     0.272347     0.465583  Biso 1.000000     O
    O   1.0     0.106241     0.354838     0.625478  Biso 1.000000     O
    O   1.0     0.476777     0.051237     0.513998  Biso 1.000000     O
    O   1.0     0.630847     0.093763     0.621214  Biso 1.000000     O
    O   1.0     0.915875     0.134174     0.557304  Biso 1.000000     O
    O   1.0     0.742666     0.030400     0.520889  Biso 1.000000     O
    O   1.0     0.046375     0.243508     0.761216  Biso 1.000000     O
    O   1.0     0.110861     0.159905     0.815392  Biso 1.000000     O
    O   1.0     0.804169     0.388158     0.660638  Biso 1.000000     O
    O   1.0     0.802736     0.291275     0.454948  Biso 1.000000     O
    O   1.0     0.442236     0.193254     0.465584  Biso 1.000000     O
    O   1.0     0.519245     0.270662     0.625481  Biso 1.000000     O
    O   1.0     0.037226     0.462771     0.513994  Biso 1.000000     O
    O   1.0     0.990346     0.527469     0.621209  Biso 1.000000     O
    O   1.0     0.641409     0.423142     0.557300  Biso 1.000000     O
    O   1.0     0.778202     0.490504     0.520880  Biso 1.000000     O
    O   1.0     0.714851     0.517727     0.761217  Biso 1.000000     O
    O   1.0     0.704547     0.655509     0.815396  Biso 1.000000     O
    O   1.0     0.022500     0.106470     0.160654  Biso 1.000000     O
    O   1.0     0.913675     0.902198     0.954948  Biso 1.000000     O
    O   1.0     0.022351     0.273358     0.965569  Biso 1.000000     O
    O   1.0     0.104833     0.356226     0.125485  Biso 1.000000     O
    O   1.0     0.801211     0.726768     0.014008  Biso 1.000000     O
    O   1.0     0.843741     0.880840     0.121230  Biso 1.000000     O
    O   1.0     0.884147     0.165883     0.057311  Biso 1.000000     O
    O   1.0     0.780374     0.992654     0.020904  Biso 1.000000     O
    O   1.0     0.993480     0.296363     0.261224  Biso 1.000000     O
    O   1.0     0.909879     0.360850     0.315403  Biso 1.000000     O
    O   1.0     0.138157     0.054185     0.160651  Biso 1.000000     O
    O   1.0     0.041286     0.052774     0.954948  Biso 1.000000     O
    O   1.0     0.943236     0.692240     0.965575  Biso 1.000000     O
    O   1.0     0.020659     0.769241     0.125490  Biso 1.000000     O
    O   1.0     0.212774     0.287216     0.014004  Biso 1.000000     O
    O   1.0     0.277467     0.240365     0.121224  Biso 1.000000     O
    O   1.0     0.173148     0.891408     0.057314  Biso 1.000000     O
    O   1.0     0.240520     0.028232     0.020909  Biso 1.000000     O
    O   1.0     0.267728     0.964849     0.261223  Biso 1.000000     O
    O   1.0     0.405505     0.954536     0.315401  Biso 1.000000     O
   Zn   1.0     0.721528     0.145121     0.559038  Biso 1.000000    Zn
   Zn   1.0     0.992548     0.288608     0.665194  Biso 1.000000    Zn
   Zn   1.0     0.496050     0.107805     0.414169  Biso 1.000000    Zn
   Zn   1.0     0.837491     0.413934     0.559032  Biso 1.000000    Zn
   Zn   1.0     0.672629     0.376604     0.665194  Biso 1.000000    Zn
   Zn   1.0     0.918100     0.306374     0.414175  Biso 1.000000    Zn
   Zn   1.0     0.895097     0.971522     0.059055  Biso 1.000000    Zn
   Zn   1.0     0.038606     0.242560     0.165204  Biso 1.000000    Zn
   Zn   1.0     0.857793     0.746059     0.914163  Biso 1.000000    Zn
   Zn   1.0     0.163939     0.087510     0.059049  Biso 1.000000    Zn
   Zn   1.0     0.126604     0.922626     0.165207  Biso 1.000000    Zn
   Zn   1.0     0.056383     0.168126     0.914161  Biso 1.000000    Zn
