#======================================================================

# CRYSTAL DATA

#----------------------------------------------------------------------

data_VESTA_phase_1


_pd_phase_name                         MOF
_cell_length_a                         15.23500
_cell_length_b                         14.38500
_cell_length_c                         17.12300
_cell_angle_alpha                      104.23700
_cell_angle_beta                       102.63900
_cell_angle_gamma                      90.03300
_symmetry_space_group_name_H-M         "P 1"
_symmetry_Int_Tables_number            1

loop_
_symmetry_equiv_pos_as_xyz
   "x, y, z"

loop_
   _atom_site_label
   _atom_site_occupancy
   _atom_site_fract_x
   _atom_site_fract_y
   _atom_site_fract_z
   _atom_site_adp_type
   _atom_site_B_iso_or_equiv
   _atom_site_type_symbol
    H   1.0     0.139898     0.538238     0.105710  Biso 1.000000     H
    H   1.0     0.639887     0.538238     0.105711  Biso 1.000000     H
    H   1.0     0.154398     0.431131     0.030545  Biso 1.000000     H
    H   1.0     0.654389     0.431132     0.030546  Biso 1.000000     H
    H   1.0     0.447345     0.496611     0.108013  Biso 1.000000     H
    H   1.0     0.947338     0.496609     0.108013  Biso 1.000000     H
    H   1.0     0.460175     0.419441     0.177474  Biso 1.000000     H
    H   1.0     0.960169     0.419439     0.177474  Biso 1.000000     H
    H   1.0     0.187885     0.339818     0.128064  Biso 1.000000     H
    H   1.0     0.687874     0.339816     0.128065  Biso 1.000000     H
    H   1.0     0.177875     0.442790     0.209207  Biso 1.000000     H
    H   1.0     0.677863     0.442789     0.209207  Biso 1.000000     H
    H   1.0     0.488825     0.271984     0.074087  Biso 1.000000     H
    H   1.0     0.988819     0.271984     0.074088  Biso 1.000000     H
    H   1.0     0.445724     0.350009     0.008941  Biso 1.000000     H
    H   1.0     0.945719     0.350010     0.008942  Biso 1.000000     H
    H   1.0     0.289972     0.358898     0.253499  Biso 1.000000     H
    H   1.0     0.789956     0.358897     0.253501  Biso 1.000000     H
    H   1.0     0.394629     0.279030     0.345209  Biso 1.000000     H
    H   1.0     0.894612     0.279028     0.345210  Biso 1.000000     H
    H   1.0     0.173283     0.108388     0.365794  Biso 1.000000     H
    H   1.0     0.673265     0.108387     0.365794  Biso 1.000000     H
    H   1.0     0.066467     0.188779     0.274733  Biso 1.000000     H
    H   1.0     0.566450     0.188780     0.274734  Biso 1.000000     H
    H   1.0     0.130424     0.225715     0.859342  Biso 1.000000     H
    H   1.0     0.630415     0.225719     0.859342  Biso 1.000000     H
    H   1.0     0.053263     0.130663     0.718632  Biso 1.000000     H
    H   1.0     0.553256     0.130665     0.718633  Biso 1.000000     H
    H   1.0     0.309606     0.110802     0.802500  Biso 1.000000     H
    H   1.0     0.809597     0.110807     0.802499  Biso 1.000000     H
    H   1.0     0.384902     0.206522     0.942849  Biso 1.000000     H
    H   1.0     0.884894     0.206525     0.942849  Biso 1.000000     H
    H   1.0     0.361467     0.552302     0.190693  Biso 1.000000     H
    H   1.0     0.861457     0.552301     0.190694  Biso 1.000000     H
    H   1.0     0.284580     0.675245     0.276690  Biso 1.000000     H
    H   1.0     0.784571     0.675245     0.276692  Biso 1.000000     H
    H   1.0     0.040221     0.794599     0.432698  Biso 1.000000     H
    H   1.0     0.540214     0.794597     0.432699  Biso 1.000000     H
    H   1.0     0.119184     0.675169     0.345725  Biso 1.000000     H
    H   1.0     0.619178     0.675168     0.345727  Biso 1.000000     H
    H   1.0     0.086509     0.461120     0.893348  Biso 1.000000     H
    H   1.0     0.586499     0.461119     0.893348  Biso 1.000000     H
    H   1.0     0.138925     0.568141     0.968126  Biso 1.000000     H
    H   1.0     0.638916     0.568139     0.968126  Biso 1.000000     H
    H   1.0     0.393459     0.503179     0.892800  Biso 1.000000     H
    H   1.0     0.893451     0.503180     0.892802  Biso 1.000000     H
    H   1.0     0.371461     0.580020     0.823092  Biso 1.000000     H
    H   1.0     0.871452     0.580021     0.823094  Biso 1.000000     H
    H   1.0     0.123314     0.659609     0.870454  Biso 1.000000     H
    H   1.0     0.623304     0.659611     0.870453  Biso 1.000000     H
    H   1.0     0.072296     0.556921     0.789470  Biso 1.000000     H
    H   1.0     0.572286     0.556923     0.789469  Biso 1.000000     H
    H   1.0     0.452108     0.727846     0.926419  Biso 1.000000     H
    H   1.0     0.952100     0.727845     0.926418  Biso 1.000000     H
    H   1.0     0.441432     0.649700     0.991592  Biso 1.000000     H
    H   1.0     0.941426     0.649699     0.991592  Biso 1.000000     H
    H   1.0     0.161879     0.641062     0.744464  Biso 1.000000     H
    H   1.0     0.661864     0.641059     0.744461  Biso 1.000000     H
    H   1.0     0.220349     0.721630     0.652572  Biso 1.000000     H
    H   1.0     0.720335     0.721626     0.652570  Biso 1.000000     H
    H   1.0     0.489385     0.892952     0.634981  Biso 1.000000     H
    H   1.0     0.989379     0.892949     0.634978  Biso 1.000000     H
    H   1.0     0.428437     0.811901     0.726318  Biso 1.000000     H
    H   1.0     0.928432     0.811897     0.726315  Biso 1.000000     H
    H   1.0     0.200963     0.772191     0.139563  Biso 1.000000     H
    H   1.0     0.700954     0.772189     0.139565  Biso 1.000000     H
    H   1.0     0.194831     0.867923     0.280584  Biso 1.000000     H
    H   1.0     0.694820     0.867922     0.280585  Biso 1.000000     H
    H   1.0     0.410027     0.890302     0.198677  Biso 1.000000     H
    H   1.0     0.910021     0.890299     0.198680  Biso 1.000000     H
    H   1.0     0.414473     0.793850     0.058114  Biso 1.000000     H
    H   1.0     0.914465     0.793848     0.058116  Biso 1.000000     H
    H   1.0     0.266367     0.447693     0.810717  Biso 1.000000     H
    H   1.0     0.766353     0.447696     0.810718  Biso 1.000000     H
    H   1.0     0.145994     0.326061     0.724475  Biso 1.000000     H
    H   1.0     0.645979     0.326065     0.724476  Biso 1.000000     H
    H   1.0     0.323214     0.206315     0.567011  Biso 1.000000     H
    H   1.0     0.823197     0.206317     0.567011  Biso 1.000000     H
    H   1.0     0.446150     0.324400     0.654201  Biso 1.000000     H
    H   1.0     0.946134     0.324401     0.654201  Biso 1.000000     H
    C   1.0     0.062833     0.410478     0.105343  Biso 1.000000     C
    C   1.0     0.562822     0.410478     0.105343  Biso 1.000000     C
    C   1.0     0.104925     0.473097     0.060667  Biso 1.000000     C
    C   1.0     0.604915     0.473097     0.060667  Biso 1.000000     C
    C   1.0     0.496317     0.467064     0.151880  Biso 1.000000     C
    C   1.0     0.996311     0.467064     0.151880  Biso 1.000000     C
    C   1.0     0.141467     0.378875     0.164045  Biso 1.000000     C
    C   1.0     0.641455     0.378874     0.164045  Biso 1.000000     C
    C   1.0     0.007310     0.324241     0.042159  Biso 1.000000     C
    C   1.0     0.507300     0.324242     0.042159  Biso 1.000000     C
    C   1.0     0.171073     0.277571     0.257163  Biso 1.000000     C
    C   1.0     0.671057     0.277570     0.257163  Biso 1.000000     C
    C   1.0     0.263623     0.303677     0.277032  Biso 1.000000     C
    C   1.0     0.763607     0.303676     0.277034  Biso 1.000000     C
    C   1.0     0.322716     0.259083     0.328723  Biso 1.000000     C
    C   1.0     0.822700     0.259081     0.328724  Biso 1.000000     C
    C   1.0     0.291315     0.187814     0.360504  Biso 1.000000     C
    C   1.0     0.791298     0.187812     0.360505  Biso 1.000000     C
    C   1.0     0.198376     0.162903     0.340687  Biso 1.000000     C
    C   1.0     0.698359     0.162901     0.340688  Biso 1.000000     C
    C   1.0     0.138576     0.207569     0.289950  Biso 1.000000     C
    C   1.0     0.638559     0.207569     0.289950  Biso 1.000000     C
    C   1.0     0.012544     0.223803     0.909411  Biso 1.000000     C
    C   1.0     0.512535     0.223804     0.909411  Biso 1.000000     C
    C   1.0     0.060118     0.199967     0.846293  Biso 1.000000     C
    C   1.0     0.560110     0.199969     0.846293  Biso 1.000000     C
    C   1.0     0.017079     0.146125     0.768108  Biso 1.000000     C
    C   1.0     0.517072     0.146125     0.768108  Biso 1.000000     C
    C   1.0     0.426114     0.114304     0.751676  Biso 1.000000     C
    C   1.0     0.926105     0.114306     0.751675  Biso 1.000000     C
    C   1.0     0.379881     0.136488     0.815664  Biso 1.000000     C
    C   1.0     0.879872     0.136491     0.815664  Biso 1.000000     C
    C   1.0     0.422172     0.190817     0.894162  Biso 1.000000     C
    C   1.0     0.922164     0.190819     0.894162  Biso 1.000000     C
    C   1.0     0.376568     0.060560     0.668317  Biso 1.000000     C
    C   1.0     0.876559     0.060563     0.668316  Biso 1.000000     C
    C   1.0     0.495839     0.606344     0.262487  Biso 1.000000     C
    C   1.0     0.995829     0.606344     0.262487  Biso 1.000000     C
    C   1.0     0.401304     0.605498     0.243155  Biso 1.000000     C
    C   1.0     0.901294     0.605497     0.243155  Biso 1.000000     C
    C   1.0     0.357826     0.674295     0.291462  Biso 1.000000     C
    C   1.0     0.857817     0.674295     0.291463  Biso 1.000000     C
    C   1.0     0.407059     0.743620     0.359656  Biso 1.000000     C
    C   1.0     0.907049     0.743621     0.359656  Biso 1.000000     C
    C   1.0     0.001478     0.742022     0.379215  Biso 1.000000     C
    C   1.0     0.501472     0.742020     0.379216  Biso 1.000000     C
    C   1.0     0.045879     0.674893     0.331116  Biso 1.000000     C
    C   1.0     0.545873     0.674892     0.331117  Biso 1.000000     C
    C   1.0     0.359230     0.817667     0.408309  Biso 1.000000     C
    C   1.0     0.859221     0.817669     0.408309  Biso 1.000000     C
    C   1.0     0.356791     0.141030     0.413821  Biso 1.000000     C
    C   1.0     0.856775     0.141027     0.413820  Biso 1.000000     C
    C   1.0     0.010003     0.589137     0.894395  Biso 1.000000     C
    C   1.0     0.509995     0.589138     0.894395  Biso 1.000000     C
    C   1.0     0.074371     0.526395     0.938577  Biso 1.000000     C
    C   1.0     0.574362     0.526395     0.938577  Biso 1.000000     C
    C   1.0     0.420389     0.532530     0.848556  Biso 1.000000     C
    C   1.0     0.920380     0.532530     0.848557  Biso 1.000000     C
    C   1.0     0.058850     0.620781     0.835068  Biso 1.000000     C
    C   1.0     0.558841     0.620782     0.835068  Biso 1.000000     C
    C   1.0     0.486344     0.675366     0.958007  Biso 1.000000     C
    C   1.0     0.986337     0.675366     0.958007  Biso 1.000000     C
    C   1.0     0.041534     0.722716     0.742384  Biso 1.000000     C
    C   1.0     0.541522     0.722717     0.742385  Biso 1.000000     C
    C   1.0     0.123841     0.696571     0.721563  Biso 1.000000     C
    C   1.0     0.623827     0.696570     0.721562  Biso 1.000000     C
    C   1.0     0.156897     0.741542     0.669769  Biso 1.000000     C
    C   1.0     0.656884     0.741540     0.669767  Biso 1.000000     C
    C   1.0     0.109739     0.813225     0.638802  Biso 1.000000     C
    C   1.0     0.609728     0.813225     0.638803  Biso 1.000000     C
    C   1.0     0.026963     0.838137     0.659488  Biso 1.000000     C
    C   1.0     0.526953     0.838139     0.659490  Biso 1.000000     C
    C   1.0     0.492708     0.793091     0.710363  Biso 1.000000     C
    C   1.0     0.992704     0.793089     0.710361  Biso 1.000000     C
    C   1.0     0.058412     0.775475     0.090484  Biso 1.000000     C
    C   1.0     0.558403     0.775475     0.090484  Biso 1.000000     C
    C   1.0     0.137517     0.798685     0.153123  Biso 1.000000     C
    C   1.0     0.637507     0.798685     0.153124  Biso 1.000000     C
    C   1.0     0.133968     0.852927     0.231453  Biso 1.000000     C
    C   1.0     0.633958     0.852927     0.231454  Biso 1.000000     C
    C   1.0     0.051629     0.885739     0.248480  Biso 1.000000     C
    C   1.0     0.551619     0.885740     0.248479  Biso 1.000000     C
    C   1.0     0.473400     0.863942     0.185009  Biso 1.000000     C
    C   1.0     0.973394     0.863940     0.185011  Biso 1.000000     C
    C   1.0     0.476059     0.809227     0.106398  Biso 1.000000     C
    C   1.0     0.976051     0.809225     0.106399  Biso 1.000000     C
    C   1.0     0.043994     0.940228     0.331891  Biso 1.000000     C
    C   1.0     0.543981     0.940228     0.331890  Biso 1.000000     C
    C   1.0     0.364563     0.393509     0.738038  Biso 1.000000     C
    C   1.0     0.864548     0.393510     0.738038  Biso 1.000000     C
    C   1.0     0.279738     0.394747     0.757818  Biso 1.000000     C
    C   1.0     0.779724     0.394749     0.757819  Biso 1.000000     C
    C   1.0     0.211846     0.326662     0.709395  Biso 1.000000     C
    C   1.0     0.711831     0.326665     0.709395  Biso 1.000000     C
    C   1.0     0.226747     0.257645     0.640699  Biso 1.000000     C
    C   1.0     0.726731     0.257647     0.640700  Biso 1.000000     C
    C   1.0     0.311439     0.258706     0.620868  Biso 1.000000     C
    C   1.0     0.811423     0.258708     0.620868  Biso 1.000000     C
    C   1.0     0.380128     0.325105     0.669047  Biso 1.000000     C
    C   1.0     0.880112     0.325107     0.669047  Biso 1.000000     C
    C   1.0     0.154395     0.184342     0.591713  Biso 1.000000     C
    C   1.0     0.654380     0.184344     0.591714  Biso 1.000000     C
    C   1.0     0.148669     0.860408     0.585526  Biso 1.000000     C
    C   1.0     0.648659     0.860407     0.585527  Biso 1.000000     C
    O   1.0     0.414922     0.046837     0.605883  Biso 1.000000     O
    O   1.0     0.914913     0.046838     0.605883  Biso 1.000000     O
    O   1.0     0.295925     0.029194     0.657520  Biso 1.000000     O
    O   1.0     0.795916     0.029196     0.657519  Biso 1.000000     O
    O   1.0     0.438934     0.171349     0.436967  Biso 1.000000     O
    O   1.0     0.938916     0.171352     0.436971  Biso 1.000000     O
    O   1.0     0.329901     0.068070     0.436811  Biso 1.000000     O
    O   1.0     0.829887     0.068067     0.436811  Biso 1.000000     O
    O   1.0     0.404878     0.884951     0.469140  Biso 1.000000     O
    O   1.0     0.904868     0.884952     0.469140  Biso 1.000000     O
    O   1.0     0.273697     0.815986     0.390815  Biso 1.000000     O
    O   1.0     0.773688     0.815985     0.390817  Biso 1.000000     O
    O   1.0     0.107842     0.316901     0.206166  Biso 1.000000     O
    O   1.0     0.607827     0.316901     0.206166  Biso 1.000000     O
    O   1.0     0.044951     0.543275     0.217706  Biso 1.000000     O
    O   1.0     0.544944     0.543274     0.217705  Biso 1.000000     O
    O   1.0     0.059228     0.280083     0.983893  Biso 1.000000     O
    O   1.0     0.559218     0.280085     0.983892  Biso 1.000000     O
    O   1.0     0.113344     0.953999     0.394026  Biso 1.000000     O
    O   1.0     0.613330     0.953999     0.394027  Biso 1.000000     O
    O   1.0     0.468958     0.972250     0.342941  Biso 1.000000     O
    O   1.0     0.968956     0.972253     0.342943  Biso 1.000000     O
    O   1.0     0.219045     0.829916     0.561748  Biso 1.000000     O
    O   1.0     0.719031     0.829911     0.561744  Biso 1.000000     O
    O   1.0     0.110829     0.933891     0.563349  Biso 1.000000     O
    O   1.0     0.610820     0.933891     0.563350  Biso 1.000000     O
    O   1.0     0.169953     0.116862     0.530942  Biso 1.000000     O
    O   1.0     0.669941     0.116862     0.530945  Biso 1.000000     O
    O   1.0     0.077249     0.186811     0.608823  Biso 1.000000     O
    O   1.0     0.577235     0.186811     0.608824  Biso 1.000000     O
    O   1.0     0.004102     0.683083     0.793661  Biso 1.000000     O
    O   1.0     0.504091     0.683084     0.793663  Biso 1.000000     O
    O   1.0     0.436158     0.456131     0.782678  Biso 1.000000     O
    O   1.0     0.936147     0.456129     0.782678  Biso 1.000000     O
    O   1.0     0.067464     0.719078     0.015749  Biso 1.000000     O
    O   1.0     0.567456     0.719077     0.015749  Biso 1.000000     O
    O   1.0     0.036635     0.499914     0.999912  Biso 1.000000     O
    O   1.0     0.536619     0.499908    -0.000115  Biso 1.000000     O
   La   1.0     0.254035     0.964866     0.501469  Biso 1.000000    La
   La   1.0     0.754024     0.964864     0.501468  Biso 1.000000    La
   La   1.0     0.003304     0.037046     0.498633  Biso 1.000000    La
   La   1.0     0.503296     0.037044     0.498633  Biso 1.000000    La
