#======================================================================

# CRYSTAL DATA

#----------------------------------------------------------------------

data_VESTA_phase_1


_pd_phase_name                         MOF
_cell_length_a                         14.05600
_cell_length_b                         17.91500
_cell_length_c                         17.91700
_cell_angle_alpha                      100.31200
_cell_angle_beta                       91.95900
_cell_angle_gamma                      91.88900
_symmetry_space_group_name_H-M         "P 1"
_symmetry_Int_Tables_number            1

loop_
_symmetry_equiv_pos_as_xyz
   "x, y, z"

loop_
   _atom_site_label
   _atom_site_occupancy
   _atom_site_fract_x
   _atom_site_fract_y
   _atom_site_fract_z
   _atom_site_adp_type
   _atom_site_B_iso_or_equiv
   _atom_site_type_symbol
    H   1.0     0.849537     0.319289     0.888414  Biso 1.000000     H
    H   1.0     0.148314     0.332053     0.949237  Biso 1.000000     H
    H   1.0     0.240313     0.446334     0.962744  Biso 1.000000     H
    H   1.0     0.205904     0.503769     0.895695  Biso 1.000000     H
    H   1.0     0.178294     0.531475    -0.008187  Biso 1.000000     H
    H   1.0     0.856483     0.457057     0.879794  Biso 1.000000     H
    H   1.0     0.852667     0.693165     0.882874  Biso 1.000000     H
    H   1.0     0.242723     0.751170     0.932968  Biso 1.000000     H
    H   1.0     0.185292     0.701033     0.996932  Biso 1.000000     H
    H   1.0     0.192203     0.657206     0.901463  Biso 1.000000     H
    H   1.0     0.146876     0.859072     0.926108  Biso 1.000000     H
    H   1.0     0.844600     0.832452     0.883450  Biso 1.000000     H
    H   1.0     0.250416     0.109766     0.808177  Biso 1.000000     H
    H   1.0     0.258408     0.066616     0.027243  Biso 1.000000     H
    H   1.0     0.436719     0.060736     0.030164  Biso 1.000000     H
    H   1.0     0.428485     0.111010     0.803029  Biso 1.000000     H
    H   1.0     0.150473     0.111503     0.680813  Biso 1.000000     H
    H   1.0     0.851694     0.050877     0.667765  Biso 1.000000     H
    H   1.0     0.759748     0.037399     0.553430  Biso 1.000000     H
    H   1.0     0.794154     0.104348     0.495941  Biso 1.000000     H
    H   1.0     0.821775     0.000000     0.468381  Biso 1.000000     H
    H   1.0     0.143578     0.120045     0.543041  Biso 1.000000     H
    H   1.0     0.147440     0.117223     0.306970  Biso 1.000000     H
    H   1.0     0.757457     0.066922     0.248639  Biso 1.000000     H
    H   1.0     0.815003     0.002984     0.298849  Biso 1.000000     H
    H   1.0     0.807949     0.098466     0.342630  Biso 1.000000     H
    H   1.0     0.853258     0.073773     0.140828  Biso 1.000000     H
    H   1.0     0.155476     0.116619     0.167703  Biso 1.000000     H
    H   1.0     0.749279     0.191779     0.889855  Biso 1.000000     H
    H   1.0     0.741834     0.972932     0.933688  Biso 1.000000     H
    H   1.0     0.563550     0.969997     0.939635  Biso 1.000000     H
    H   1.0     0.571208     0.196891     0.888664  Biso 1.000000     H
    H   1.0     0.467498     0.292074     0.226775  Biso 1.000000     H
    H   1.0     0.163506     0.261277     0.202716  Biso 1.000000     H
    H   1.0     0.171164     0.260171     0.063209  Biso 1.000000     H
    H   1.0     0.504553     0.341476     0.044749  Biso 1.000000     H
    H   1.0     0.562065     0.308433     0.122124  Biso 1.000000     H
    H   1.0     0.521322     0.243657     0.039163  Biso 1.000000     H
    H   1.0     0.532625     0.314877     0.870263  Biso 1.000000     H
    H   1.0     0.527308     0.399253     0.831737  Biso 1.000000     H
    H   1.0     0.466780     0.390590     0.916062  Biso 1.000000     H
    H   1.0     0.178783     0.242976     0.824469  Biso 1.000000     H
    H   1.0     0.172835     0.248043     0.686065  Biso 1.000000     H
    H   1.0     0.453340     0.355202     0.710104  Biso 1.000000     H
    H   1.0     0.474805     0.058015     0.468502  Biso 1.000000     H
    H   1.0     0.172720     0.038707     0.421142  Biso 1.000000     H
    H   1.0     0.173383     0.901529     0.429073  Biso 1.000000     H
    H   1.0     0.563286     0.952794     0.491228  Biso 1.000000     H
    H   1.0     0.499614     0.883017     0.531450  Biso 1.000000     H
    H   1.0     0.520837     0.865623     0.433824  Biso 1.000000     H
    H   1.0     0.175043     0.657169     0.419901  Biso 1.000000     H
    H   1.0     0.526132     0.709282     0.485056  Biso 1.000000     H
    H   1.0     0.465663     0.748658     0.566546  Biso 1.000000     H
    H   1.0     0.530934     0.664689     0.566104  Biso 1.000000     H
    H   1.0     0.455365     0.544088     0.525550  Biso 1.000000     H
    H   1.0     0.172428     0.518101     0.422878  Biso 1.000000     H
    H   1.0     0.557034     0.216891     0.357565  Biso 1.000000     H
    H   1.0     0.583490     0.377927     0.555182  Biso 1.000000     H
    H   1.0     0.760135     0.377643     0.555819  Biso 1.000000     H
    H   1.0     0.733947     0.210251     0.348940  Biso 1.000000     H
    H   1.0     0.887835     0.292734     0.573063  Biso 1.000000     H
    H   1.0     0.877266     0.283652     0.329995  Biso 1.000000     H
    H   1.0     0.054793     0.278338     0.334518  Biso 1.000000     H
    H   1.0     0.065457     0.287315     0.566873  Biso 1.000000     H
    H   1.0     0.532381     0.773329     0.708147  Biso 1.000000     H
    H   1.0     0.836372     0.797230     0.739047  Biso 1.000000     H
    H   1.0     0.828642     0.936749     0.740117  Biso 1.000000     H
    H   1.0     0.495253     0.955325     0.658558  Biso 1.000000     H
    H   1.0     0.437763     0.878010     0.691597  Biso 1.000000     H
    H   1.0     0.478441     0.960995     0.756358  Biso 1.000000     H
    H   1.0     0.467188     0.130177     0.685272  Biso 1.000000     H
    H   1.0     0.472386     0.168507     0.600791  Biso 1.000000     H
    H   1.0     0.532804     0.084092     0.609579  Biso 1.000000     H
    H   1.0     0.821226     0.175342     0.756835  Biso 1.000000     H
    H   1.0     0.827222     0.313768     0.751802  Biso 1.000000     H
    H   1.0     0.546518     0.290110     0.644796  Biso 1.000000     H
    H   1.0     0.525208     0.531540     0.942090  Biso 1.000000     H
    H   1.0     0.827313     0.578617     0.961604  Biso 1.000000     H
    H   1.0     0.826633     0.570769     0.098774  Biso 1.000000     H
    H   1.0     0.436718     0.508969     0.047232  Biso 1.000000     H
    H   1.0     0.500361     0.468772     0.117129  Biso 1.000000     H
    H   1.0     0.479168     0.566430     0.134378  Biso 1.000000     H
    H   1.0     0.824744     0.580496     0.343227  Biso 1.000000     H
    H   1.0     0.473724     0.515185     0.290779  Biso 1.000000     H
    H   1.0     0.534340     0.433710     0.251456  Biso 1.000000     H
    H   1.0     0.469116     0.434139     0.335377  Biso 1.000000     H
    H   1.0     0.544608     0.474702     0.455987  Biso 1.000000     H
    H   1.0     0.827362     0.577504     0.482280  Biso 1.000000     H
    H   1.0     0.442885     0.642516     0.783158  Biso 1.000000     H
    H   1.0     0.416548     0.444828     0.622203  Biso 1.000000     H
    H   1.0     0.239902     0.444169     0.622470  Biso 1.000000     H
    H   1.0     0.265969     0.651107     0.789784  Biso 1.000000     H
    H   1.0     0.112363     0.426900     0.707275  Biso 1.000000     H
    H   1.0     0.122479     0.670004     0.716503  Biso 1.000000     H
    H   1.0     0.944989     0.665450     0.721922  Biso 1.000000     H
    H   1.0     0.934758     0.433059     0.712826  Biso 1.000000     H
    C   1.0     0.996631     0.233971     0.921885  Biso 1.000000     C
    C   1.0     0.998712     0.317222     0.919461  Biso 1.000000     C
    C   1.0     0.916212     0.352647     0.900105  Biso 1.000000     C
    C   1.0     0.084674     0.360193     0.934514  Biso 1.000000     C
    C   1.0     0.090676     0.437273     0.930942  Biso 1.000000     C
    C   1.0     0.183894     0.481825     0.946367  Biso 1.000000     C
    C   1.0     0.919890     0.429255     0.895735  Biso 1.000000     C
    C   1.0     0.006429     0.472677     0.911749  Biso 1.000000     C
    C   1.0     0.008133     0.551241     0.909587  Biso 1.000000     C
    C   1.0     0.007390     0.619390     0.909229  Biso 1.000000     C
    C   1.0     0.004474     0.698006     0.907952  Biso 1.000000     C
    C   1.0     0.916603     0.730157     0.893840  Biso 1.000000     C
    C   1.0     0.089184     0.744966     0.920542  Biso 1.000000     C
    C   1.0     0.182504     0.712167     0.938404  Biso 1.000000     C
    C   1.0     0.082956     0.821894     0.917490  Biso 1.000000     C
    C   1.0     0.912292     0.807388     0.893392  Biso 1.000000     C
    C   1.0     0.995555     0.854040     0.904707  Biso 1.000000     C
    C   1.0     0.991437     0.937619     0.904446  Biso 1.000000     C
    C   1.0     0.295088     0.099998     0.856051  Biso 1.000000     C
    C   1.0     0.299549     0.074510     0.978593  Biso 1.000000     C
    C   1.0     0.398272     0.071490     0.979581  Biso 1.000000     C
    C   1.0     0.393750     0.100117     0.853645  Biso 1.000000     C
    C   1.0     0.447388     0.084971     0.916172  Biso 1.000000     C
    C   1.0     0.003343     0.078191     0.766010  Biso 1.000000     C
    C   1.0     0.001284     0.080584     0.682755  Biso 1.000000     C
    C   1.0     0.083802     0.099848     0.647401  Biso 1.000000     C
    C   1.0     0.915344     0.065559     0.639695  Biso 1.000000     C
    C   1.0     0.909376     0.069088     0.562606  Biso 1.000000     C
    C   1.0     0.816171     0.053694     0.517971  Biso 1.000000     C
    C   1.0     0.080159     0.104174     0.570788  Biso 1.000000     C
    C   1.0     0.993631     0.088218     0.527286  Biso 1.000000     C
    C   1.0     0.991956     0.090382     0.448732  Biso 1.000000     C
    C   1.0     0.992764     0.090769     0.380599  Biso 1.000000     C
    C   1.0     0.995682     0.092041     0.301995  Biso 1.000000     C
    C   1.0     0.083516     0.106207     0.269923  Biso 1.000000     C
    C   1.0     0.910979     0.079397     0.254972  Biso 1.000000     C
    C   1.0     0.817695     0.061508     0.287694  Biso 1.000000     C
    C   1.0     0.917178     0.082424     0.178052  Biso 1.000000     C
    C   1.0     0.087804     0.106632     0.192698  Biso 1.000000     C
    C   1.0     0.004546     0.095249     0.145977  Biso 1.000000     C
    C   1.0     0.008622     0.095514     0.062403  Biso 1.000000     C
    C   1.0     0.704741     0.143947     0.899792  Biso 1.000000     C
    C   1.0     0.700590     0.021544     0.925656  Biso 1.000000     C
    C   1.0     0.601878     0.020546     0.928712  Biso 1.000000     C
    C   1.0     0.606074     0.146338     0.899703  Biso 1.000000     C
    C   1.0     0.552599     0.083876     0.915056  Biso 1.000000     C
    C   1.0     0.311451     0.278896     0.306842  Biso 1.000000     C
    C   1.0     0.315283     0.277142     0.223041  Biso 1.000000     C
    C   1.0     0.403227     0.285469     0.190062  Biso 1.000000     C
    C   1.0     0.231500     0.268260     0.177040  Biso 1.000000     C
    C   1.0     0.235621     0.268308     0.099765  Biso 1.000000     C
    C   1.0     0.409717     0.286797     0.112872  Biso 1.000000     C
    C   1.0     0.504413     0.295798     0.078340  Biso 1.000000     C
    C   1.0     0.324024     0.278920     0.067108  Biso 1.000000     C
    C   1.0     0.325955     0.283273     0.989191  Biso 1.000000     C
    C   1.0     0.324206     0.289318     0.922312  Biso 1.000000     C
    C   1.0     0.320511     0.295202     0.844666  Biso 1.000000     C
    C   1.0     0.398736     0.328468     0.812475  Biso 1.000000     C
    C   1.0     0.485725     0.360394     0.859996  Biso 1.000000     C
    C   1.0     0.238587     0.267491     0.798699  Biso 1.000000     C
    C   1.0     0.235283     0.270326     0.721725  Biso 1.000000     C
    C   1.0     0.393545     0.329847     0.734935  Biso 1.000000     C
    C   1.0     0.313846     0.299993     0.688754  Biso 1.000000     C
    C   1.0     0.313817     0.298215     0.604864  Biso 1.000000     C
    C   1.0     0.323120     0.140706     0.444935  Biso 1.000000     C
    C   1.0     0.323978     0.057085     0.445296  Biso 1.000000     C
    C   1.0     0.409248     0.022801     0.460158  Biso 1.000000     C
    C   1.0     0.238939     0.012597     0.433334  Biso 1.000000     C
    C   1.0     0.239427     0.936106     0.437773  Biso 1.000000     C
    C   1.0     0.411790     0.946103     0.465288  Biso 1.000000     C
    C   1.0     0.503806     0.910484     0.481418  Biso 1.000000     C
    C   1.0     0.324766     0.901803     0.454531  Biso 1.000000     C
    C   1.0     0.322720     0.824028     0.460534  Biso 1.000000     C
    C   1.0     0.319430     0.756800     0.465599  Biso 1.000000     C
    C   1.0     0.317421     0.678699     0.470304  Biso 1.000000     C
    C   1.0     0.236204     0.631721     0.443046  Biso 1.000000     C
    C   1.0     0.397452     0.646600     0.501540  Biso 1.000000     C
    C   1.0     0.484637     0.694633     0.531834  Biso 1.000000     C
    C   1.0     0.394115     0.568768     0.501824  Biso 1.000000     C
    C   1.0     0.234592     0.554452     0.444484  Biso 1.000000     C
    C   1.0     0.314643     0.521945     0.472662  Biso 1.000000     C
    C   1.0     0.316412     0.437907     0.469755  Biso 1.000000     C
    C   1.0     0.605362     0.251324     0.399927  Biso 1.000000     C
    C   1.0     0.619476     0.340792     0.511033  Biso 1.000000     C
    C   1.0     0.718355     0.340100     0.511184  Biso 1.000000     C
    C   1.0     0.703566     0.248353     0.395560  Biso 1.000000     C
    C   1.0     0.762434     0.292749     0.452710  Biso 1.000000     C
    C   1.0     0.867312     0.289395     0.451713  Biso 1.000000     C
    C   1.0     0.921913     0.290772     0.519048  Biso 1.000000     C
    C   1.0     0.915729     0.284354     0.383952  Biso 1.000000     C
    C   1.0     0.014437     0.281859     0.385782  Biso 1.000000     C
    C   1.0     0.020291     0.287360     0.516257  Biso 1.000000     C
    C   1.0     0.688492     0.693167     0.721296  Biso 1.000000     C
    C   1.0     0.684602     0.776983     0.723108  Biso 1.000000     C
    C   1.0     0.596634     0.810013     0.714761  Biso 1.000000     C
    C   1.0     0.768363     0.822946     0.732031  Biso 1.000000     C
    C   1.0     0.764198     0.900226     0.731958  Biso 1.000000     C
    C   1.0     0.590104     0.887204     0.713380  Biso 1.000000     C
    C   1.0     0.495390     0.921774     0.704266  Biso 1.000000     C
    C   1.0     0.675777     0.932925     0.721261  Biso 1.000000     C
    C   1.0     0.673852     0.010844     0.716794  Biso 1.000000     C
    C   1.0     0.675647     0.077700     0.710644  Biso 1.000000     C
    C   1.0     0.679381     0.155341     0.704709  Biso 1.000000     C
    C   1.0     0.601104     0.187647     0.671504  Biso 1.000000     C
    C   1.0     0.514002     0.140245     0.639687  Biso 1.000000     C
    C   1.0     0.761388     0.201198     0.732363  Biso 1.000000     C
    C   1.0     0.764731     0.278178     0.729538  Biso 1.000000     C
    C   1.0     0.606349     0.265188     0.670107  Biso 1.000000     C
    C   1.0     0.686130     0.311262     0.699924  Biso 1.000000     C
    C   1.0     0.686166     0.395178     0.701838  Biso 1.000000     C
    C   1.0     0.676883     0.555010     0.859505  Biso 1.000000     C
    C   1.0     0.676043     0.554604     0.943114  Biso 1.000000     C
    C   1.0     0.590774     0.539835     0.977343  Biso 1.000000     C
    C   1.0     0.761090     0.566496     0.987661  Biso 1.000000     C
    C   1.0     0.760589     0.562122     0.064145  Biso 1.000000     C
    C   1.0     0.588217     0.534776     0.054033  Biso 1.000000     C
    C   1.0     0.496194     0.518766     0.089588  Biso 1.000000     C
    C   1.0     0.675243     0.545490     0.098394  Biso 1.000000     C
    C   1.0     0.677265     0.539596     0.176187  Biso 1.000000     C
    C   1.0     0.680501     0.534633     0.243436  Biso 1.000000     C
    C   1.0     0.682472     0.530001     0.321544  Biso 1.000000     C
    C   1.0     0.763628     0.557313     0.368608  Biso 1.000000     C
    C   1.0     0.602481     0.498745     0.353552  Biso 1.000000     C
    C   1.0     0.515329     0.468424     0.305458  Biso 1.000000     C
    C   1.0     0.605814     0.498458     0.431375  Biso 1.000000     C
    C   1.0     0.765237     0.555869     0.445869  Biso 1.000000     C
    C   1.0     0.685242     0.527625     0.478274  Biso 1.000000     C
    C   1.0     0.683470     0.530398     0.562280  Biso 1.000000     C
    C   1.0     0.394580     0.600139     0.748731  Biso 1.000000     C
    C   1.0     0.380537     0.488995     0.659305  Biso 1.000000     C
    C   1.0     0.281660     0.488826     0.659994  Biso 1.000000     C
    C   1.0     0.296373     0.604481     0.751697  Biso 1.000000     C
    C   1.0     0.237539     0.547305     0.707319  Biso 1.000000     C
    C   1.0     0.132667     0.548272     0.710699  Biso 1.000000     C
    C   1.0     0.078187     0.480919     0.709299  Biso 1.000000     C
    C   1.0     0.084127     0.616030     0.715792  Biso 1.000000     C
    C   1.0     0.985433     0.614185     0.718353  Biso 1.000000     C
    C   1.0     0.979815     0.483694     0.712784  Biso 1.000000     C
    N   1.0     0.248464     0.087967     0.917607  Biso 1.000000     N
    N   1.0     0.751524     0.082465     0.911991  Biso 1.000000     N
    N   1.0     0.563605     0.296642     0.456932  Biso 1.000000     N
    N   1.0     0.066290     0.283394     0.450833  Biso 1.000000     N
    N   1.0     0.436371     0.543124     0.703439  Biso 1.000000     N
    N   1.0     0.933698     0.549121     0.716827  Biso 1.000000     N
    O   1.0     0.070435     0.974261     0.902993  Biso 1.000000     O
    O   1.0     0.909113     0.965771     0.906139  Biso 1.000000     O
    O   1.0     0.916506     0.197468     0.909305  Biso 1.000000     O
    O   1.0     0.075992     0.205348     0.935237  Biso 1.000000     O
    O   1.0     0.929593     0.097003     0.025731  Biso 1.000000     O
    O   1.0     0.090927     0.093808     0.034292  Biso 1.000000     O
    O   1.0     0.083471     0.090716     0.802569  Biso 1.000000     O
    O   1.0     0.923990     0.064901     0.794576  Biso 1.000000     O
    O   1.0     0.391062     0.284557     0.344225  Biso 1.000000     O
    O   1.0     0.229444     0.275188     0.334587  Biso 1.000000     O
    O   1.0     0.394912     0.303414     0.575826  Biso 1.000000     O
    O   1.0     0.233319     0.291629     0.568721  Biso 1.000000     O
    O   1.0     0.403287     0.177216     0.450623  Biso 1.000000     O
    O   1.0     0.241637     0.169457     0.440402  Biso 1.000000     O
    O   1.0     0.398257     0.409625     0.474546  Biso 1.000000     O
    O   1.0     0.236879     0.400543     0.462567  Biso 1.000000     O
    O   1.0     0.608912     0.655803     0.715587  Biso 1.000000     O
    O   1.0     0.770532     0.665389     0.724982  Biso 1.000000     O
    O   1.0     0.605058     0.424277     0.696610  Biso 1.000000     O
    O   1.0     0.766650     0.431290     0.708626  Biso 1.000000     O
    O   1.0     0.596727     0.549363     0.822931  Biso 1.000000     O
    O   1.0     0.758367     0.559577     0.830830  Biso 1.000000     O
    O   1.0     0.601607     0.525581     0.590454  Biso 1.000000     O
    O   1.0     0.762987     0.537464     0.599711  Biso 1.000000     O
   Zn   1.0     0.100662     0.090290     0.918652  Biso 1.000000    Zn
   Zn   1.0     0.899332     0.081408     0.909682  Biso 1.000000    Zn
   Zn   1.0     0.416772     0.293875     0.459758  Biso 1.000000    Zn
   Zn   1.0     0.213265     0.283646     0.450368  Biso 1.000000    Zn
   Zn   1.0     0.583205     0.540289     0.706192  Biso 1.000000    Zn
   Zn   1.0     0.786724     0.549629     0.716706  Biso 1.000000    Zn
