#======================================================================

# CRYSTAL DATA

#----------------------------------------------------------------------

data_VESTA_phase_1


_pd_phase_name                         MOF
_cell_length_a                         13.02200
_cell_length_b                         16.56600
_cell_length_c                         15.73600
_cell_angle_alpha                      105.87000
_cell_angle_beta                       90.41800
_cell_angle_gamma                      101.30000
_symmetry_space_group_name_H-M         "P 1"
_symmetry_Int_Tables_number            1

loop_
_symmetry_equiv_pos_as_xyz
   "x, y, z"

loop_
   _atom_site_label
   _atom_site_occupancy
   _atom_site_fract_x
   _atom_site_fract_y
   _atom_site_fract_z
   _atom_site_adp_type
   _atom_site_B_iso_or_equiv
   _atom_site_type_symbol
    H   1.0     0.219324     0.664484     0.645366  Biso 1.000000     H
    H   1.0     0.719194     0.665029     0.644372  Biso 1.000000     H
    H   1.0     0.015522     0.824372     0.624012  Biso 1.000000     H
    H   1.0     0.514577     0.824475     0.623623  Biso 1.000000     H
    H   1.0     0.086907     0.695516     0.554138  Biso 1.000000     H
    H   1.0     0.586409     0.695847     0.553667  Biso 1.000000     H
    H   1.0     0.290341     0.534052     0.576308  Biso 1.000000     H
    H   1.0     0.789751     0.534342     0.575314  Biso 1.000000     H
    H   1.0     0.108560     0.883374     0.768637  Biso 1.000000     H
    H   1.0     0.607479     0.882332     0.768642  Biso 1.000000     H
    H   1.0     0.288202     0.101997     0.940628  Biso 1.000000     H
    H   1.0     0.788066     0.101087     0.939682  Biso 1.000000     H
    H   1.0     0.152773     0.111178     0.048970  Biso 1.000000     H
    H   1.0     0.652978     0.111027     0.048385  Biso 1.000000     H
    H   1.0     0.461442     0.884095     0.867416  Biso 1.000000     H
    H   1.0     0.962117     0.884493     0.866970  Biso 1.000000     H
    H   1.0     0.385021     0.332280     0.855187  Biso 1.000000     H
    H   1.0     0.885926     0.332921     0.855454  Biso 1.000000     H
    H   1.0     0.102380     0.173946     0.878732  Biso 1.000000     H
    H   1.0     0.604335     0.175778     0.879168  Biso 1.000000     H
    H   1.0     0.239480     0.303030     0.947790  Biso 1.000000     H
    H   1.0     0.739852     0.305851     0.948394  Biso 1.000000     H
    H   1.0     0.022878     0.463822     0.923991  Biso 1.000000     H
    H   1.0     0.520448     0.464160     0.923717  Biso 1.000000     H
    H   1.0     0.160704     0.110851     0.736673  Biso 1.000000     H
    H   1.0     0.661012     0.110460     0.736547  Biso 1.000000     H
    H   1.0     0.238927     0.899069     0.560657  Biso 1.000000     H
    H   1.0     0.738581     0.898558     0.560218  Biso 1.000000     H
    H   1.0     0.100380     0.891595     0.449998  Biso 1.000000     H
    H   1.0     0.600114     0.891485     0.449652  Biso 1.000000     H
    H   1.0     0.514912     0.110549     0.636500  Biso 1.000000     H
    H   1.0     0.000000     0.110503     0.636564  Biso 1.000000     H
    H   1.0     0.280806     0.334955     0.355601  Biso 1.000000     H
    H   1.0     0.780651     0.335515     0.354569  Biso 1.000000     H
    H   1.0     0.485414     0.175529     0.376356  Biso 1.000000     H
    H   1.0     0.984445     0.175632     0.375909  Biso 1.000000     H
    H   1.0     0.413589     0.304162     0.446322  Biso 1.000000     H
    H   1.0     0.913064     0.304495     0.445763  Biso 1.000000     H
    H   1.0     0.210255     0.465650     0.424641  Biso 1.000000     H
    H   1.0     0.709644     0.465950     0.423638  Biso 1.000000     H
    H   1.0     0.392494     0.117674     0.231348  Biso 1.000000     H
    H   1.0     0.891380     0.116633     0.231310  Biso 1.000000     H
    H   1.0     0.211963     0.898861     0.060351  Biso 1.000000     H
    H   1.0     0.711815     0.897915     0.059403  Biso 1.000000     H
    H   1.0     0.347058     0.888918     0.951657  Biso 1.000000     H
    H   1.0     0.847248     0.888719     0.951066  Biso 1.000000     H
    H   1.0     0.037811     0.115523     0.132966  Biso 1.000000     H
    H   1.0     0.538527     0.115924     0.132569  Biso 1.000000     H
    H   1.0     0.114025     0.667048     0.144518  Biso 1.000000     H
    H   1.0     0.614918     0.667686     0.144805  Biso 1.000000     H
    H   1.0     0.395625     0.824218     0.120868  Biso 1.000000     H
    H   1.0     0.897578     0.826049     0.121311  Biso 1.000000     H
    H   1.0     0.260097     0.694155     0.051621  Biso 1.000000     H
    H   1.0     0.760466     0.696976     0.052239  Biso 1.000000     H
    H   1.0     0.479480     0.535817     0.076260  Biso 1.000000     H
    H   1.0     0.977064     0.536159     0.075970  Biso 1.000000     H
    H   1.0     0.338726     0.889325     0.263588  Biso 1.000000     H
    H   1.0     0.839084     0.888982     0.263437  Biso 1.000000     H
    H   1.0     0.261669     0.101600     0.439673  Biso 1.000000     H
    H   1.0     0.761308     0.101093     0.439237  Biso 1.000000     H
    H   1.0     0.400190     0.108710     0.550200  Biso 1.000000     H
    H   1.0     0.899920     0.108612     0.549855  Biso 1.000000     H
    H   1.0    -0.014737     0.889284     0.363561  Biso 1.000000     H
    H   1.0     0.484772     0.889164     0.363664  Biso 1.000000     H
    C   1.0     0.316508     0.829651     0.678615  Biso 1.000000     C
    C   1.0     0.817498     0.830076     0.678376  Biso 1.000000     C
    C   1.0     0.362013     0.752663     0.638039  Biso 1.000000     C
    C   1.0     0.862448     0.752885     0.637706  Biso 1.000000     C
    C   1.0     0.299390     0.670285     0.624554  Biso 1.000000     C
    C   1.0     0.799374     0.670630     0.623845  Biso 1.000000     C
    C   1.0     0.465611     0.760798     0.612328  Biso 1.000000     C
    C   1.0     0.966201     0.760792     0.612391  Biso 1.000000     C
    C   1.0     0.006038     0.688539     0.572871  Biso 1.000000     C
    C   1.0     0.505686     0.688666     0.572783  Biso 1.000000     C
    C   1.0     0.338936     0.597758     0.585902  Biso 1.000000     C
    C   1.0     0.838663     0.597970     0.585190  Biso 1.000000     C
    C   1.0     0.442811     0.605705     0.558516  Biso 1.000000     C
    C   1.0     0.942731     0.605701     0.558276  Biso 1.000000     C
    C   1.0     0.482928     0.531909     0.517795  Biso 1.000000     C
    C   1.0     0.982778     0.531852     0.517691  Biso 1.000000     C
    C   1.0     0.113638     0.933007     0.831164  Biso 1.000000     C
    C   1.0     0.612849     0.932119     0.831077  Biso 1.000000     C
    C   1.0     0.214959     0.054595     0.927601  Biso 1.000000     C
    C   1.0     0.714684     0.053865     0.927003  Biso 1.000000     C
    C   1.0     0.137621     0.059248     0.987836  Biso 1.000000     C
    C   1.0     0.637573     0.058923     0.987405  Biso 1.000000     C
    C   1.0     0.032740     0.934087     0.888129  Biso 1.000000     C
    C   1.0     0.532186     0.933592     0.888242  Biso 1.000000     C
    C   1.0     0.042618     0.998263     0.968952  Biso 1.000000     C
    C   1.0     0.542485     0.998066     0.968870  Biso 1.000000     C
    C   1.0     0.402115     0.168052     0.823454  Biso 1.000000     C
    C   1.0     0.900601     0.168056     0.823424  Biso 1.000000     C
    C   1.0     0.485720     0.245796     0.863698  Biso 1.000000     C
    C   1.0     0.985135     0.245261     0.863557  Biso 1.000000     C
    C   1.0     0.462927     0.327603     0.876380  Biso 1.000000     C
    C   1.0     0.963564     0.327483     0.876446  Biso 1.000000     C
    C   1.0     0.085244     0.237521     0.889476  Biso 1.000000     C
    C   1.0     0.586171     0.239007     0.889836  Biso 1.000000     C
    C   1.0     0.161874     0.309882     0.928566  Biso 1.000000     C
    C   1.0     0.661959     0.311933     0.928958  Biso 1.000000     C
    C   1.0     0.039778     0.400233     0.914772  Biso 1.000000     C
    C   1.0     0.538310     0.400912     0.914702  Biso 1.000000     C
    C   1.0     0.140346     0.392691     0.942218  Biso 1.000000     C
    C   1.0     0.639219     0.394340     0.942413  Biso 1.000000     C
    C   1.0     0.217761     0.466816     0.982373  Biso 1.000000     C
    C   1.0     0.716023     0.468881     0.982579  Biso 1.000000     C
    C   1.0     0.143020     0.062915     0.672798  Biso 1.000000     C
    C   1.0     0.643113     0.062583     0.672643  Biso 1.000000     C
    C   1.0     0.187991     0.945321     0.574075  Biso 1.000000     C
    C   1.0     0.687776     0.944908     0.573722  Biso 1.000000     C
    C   1.0     0.109105     0.941564     0.512547  Biso 1.000000     C
    C   1.0     0.608950     0.941368     0.512268  Biso 1.000000     C
    C   1.0     0.062071     0.062480     0.614745  Biso 1.000000     C
    C   1.0     0.562259     0.062381     0.614644  Biso 1.000000     C
    C   1.0     0.042882     0.001079     0.531842  Biso 1.000000     C
    C   1.0     0.542885     0.000993     0.531760  Biso 1.000000     C
    C   1.0     0.182483     0.169916     0.321578  Biso 1.000000     C
    C   1.0     0.683486     0.170349     0.321389  Biso 1.000000     C
    C   1.0     0.137535     0.247108     0.362246  Biso 1.000000     C
    C   1.0     0.637967     0.247339     0.361916  Biso 1.000000     C
    C   1.0     0.200621     0.329360     0.376120  Biso 1.000000     C
    C   1.0     0.700584     0.329717     0.375381  Biso 1.000000     C
    C   1.0     0.033775     0.239209     0.387544  Biso 1.000000     C
    C   1.0     0.534371     0.239206     0.387632  Biso 1.000000     C
    C   1.0     0.494310     0.311340     0.427201  Biso 1.000000     C
    C   1.0     0.993937     0.311466     0.427041  Biso 1.000000     C
    C   1.0     0.161331     0.402025     0.414752  Biso 1.000000     C
    C   1.0     0.661053     0.402244     0.414060  Biso 1.000000     C
    C   1.0     0.057259     0.394301     0.441657  Biso 1.000000     C
    C   1.0     0.557177     0.394300     0.441443  Biso 1.000000     C
    C   1.0     0.017214     0.468153     0.482230  Biso 1.000000     C
    C   1.0     0.517070     0.468097     0.482181  Biso 1.000000     C
    C   1.0     0.387137     0.067876     0.168923  Biso 1.000000     C
    C   1.0     0.886319     0.066978     0.168802  Biso 1.000000     C
    C   1.0     0.285333     0.946097     0.073022  Biso 1.000000     C
    C   1.0     0.785039     0.945337     0.072411  Biso 1.000000     C
    C   1.0     0.362447     0.941039     0.012623  Biso 1.000000     C
    C   1.0     0.862378     0.940679     0.012176  Biso 1.000000     C
    C   1.0     0.467799     0.066407     0.111758  Biso 1.000000     C
    C   1.0     0.967212     0.065900     0.111833  Biso 1.000000     C
    C   1.0     0.457519     0.001916     0.031144  Biso 1.000000     C
    C   1.0     0.957357     0.001692     0.031034  Biso 1.000000     C
    C   1.0     0.099354     0.831916     0.176621  Biso 1.000000     C
    C   1.0     0.597855     0.831919     0.176528  Biso 1.000000     C
    C   1.0     0.014822     0.754722     0.136444  Biso 1.000000     C
    C   1.0     0.514227     0.754182     0.136318  Biso 1.000000     C
    C   1.0     0.036391     0.672495     0.123526  Biso 1.000000     C
    C   1.0     0.537009     0.672371     0.123628  Biso 1.000000     C
    C   1.0     0.413777     0.760984     0.110195  Biso 1.000000     C
    C   1.0     0.914715     0.762471     0.110534  Biso 1.000000     C
    C   1.0     0.337992     0.688064     0.071045  Biso 1.000000     C
    C   1.0     0.838070     0.690116     0.071456  Biso 1.000000     C
    C   1.0     0.461629     0.599069     0.085280  Biso 1.000000     C
    C   1.0     0.960163     0.599751     0.085213  Biso 1.000000     C
    C   1.0     0.360718     0.605653     0.057589  Biso 1.000000     C
    C   1.0     0.859600     0.607303     0.057766  Biso 1.000000     C
    C   1.0     0.283913     0.531118     0.017410  Biso 1.000000     C
    C   1.0     0.782177     0.533182     0.017615  Biso 1.000000     C
    C   1.0     0.356740     0.937276     0.327438  Biso 1.000000     C
    C   1.0     0.856874     0.936987     0.327262  Biso 1.000000     C
    C   1.0     0.312360     0.055165     0.426221  Biso 1.000000     C
    C   1.0     0.812150     0.054769     0.425864  Biso 1.000000     C
    C   1.0     0.391204     0.058712     0.487661  Biso 1.000000     C
    C   1.0     0.891060     0.058541     0.487375  Biso 1.000000     C
    C   1.0     0.437577     0.937457     0.385442  Biso 1.000000     C
    C   1.0     0.937820     0.937414     0.385314  Biso 1.000000     C
    C   1.0     0.457114     0.998965     0.468245  Biso 1.000000     C
    C   1.0     0.957152     0.998922     0.468144  Biso 1.000000     C
    N   1.0     0.203999     0.992519     0.849893  Biso 1.000000     N
    N   1.0     0.703304     0.991506     0.849503  Biso 1.000000     N
    N   1.0     0.205769     0.005240     0.653392  Biso 1.000000     N
    N   1.0     0.705568     0.004700     0.653114  Biso 1.000000     N
    N   1.0     0.296697     0.008470     0.150510  Biso 1.000000     N
    N   1.0     0.795979     0.007441     0.150097  Biso 1.000000     N
    N   1.0     0.294427     0.995272     0.346898  Biso 1.000000     N
    N   1.0     0.794242     0.994756     0.346610  Biso 1.000000     N
    O   1.0     0.382214     0.903731     0.700054  Biso 1.000000     O
    O   1.0     0.883522     0.903973     0.700059  Biso 1.000000     O
    O   1.0     0.220290     0.821039     0.689410  Biso 1.000000     O
    O   1.0     0.721280     0.822044     0.689330  Biso 1.000000     O
    O   1.0     0.431147     0.094227     0.803788  Biso 1.000000     O
    O   1.0     0.928814     0.093914     0.803724  Biso 1.000000     O
    O   1.0     0.309880     0.175720     0.811148  Biso 1.000000     O
    O   1.0     0.808767     0.176679     0.811309  Biso 1.000000     O
    O   1.0     0.116473     0.096013     0.299943  Biso 1.000000     O
    O   1.0     0.617783     0.096267     0.299922  Biso 1.000000     O
    O   1.0     0.278710     0.177947     0.310663  Biso 1.000000     O
    O   1.0     0.779692     0.178981     0.310531  Biso 1.000000     O
    O   1.0     0.071175     0.906069     0.196262  Biso 1.000000     O
    O   1.0     0.568836     0.905749     0.196240  Biso 1.000000     O
    O   1.0     0.191200     0.823284     0.188671  Biso 1.000000     O
    O   1.0     0.690067     0.824221     0.188879  Biso 1.000000     O
   Zn   1.0     0.310505    -0.000765     0.751876  Biso 1.000000    Zn
   Zn   1.0     0.809144    -0.002140     0.751623  Biso 1.000000    Zn
   Zn   1.0     0.190840     0.002142     0.248384  Biso 1.000000    Zn
   Zn   1.0     0.689475     0.000769     0.248128  Biso 1.000000    Zn
