#======================================================================

# CRYSTAL DATA

#----------------------------------------------------------------------

data_VESTA_phase_1


_pd_phase_name                         MOF
_cell_length_a                         17.30200
_cell_length_b                         15.34500
_cell_length_c                         17.42100
_cell_angle_alpha                      90.00000
_cell_angle_beta                       90.00000
_cell_angle_gamma                      89.99900
_symmetry_space_group_name_H-M         "P 1"
_symmetry_Int_Tables_number            1

loop_
_symmetry_equiv_pos_as_xyz
   "x, y, z"

loop_
   _atom_site_label
   _atom_site_occupancy
   _atom_site_fract_x
   _atom_site_fract_y
   _atom_site_fract_z
   _atom_site_adp_type
   _atom_site_B_iso_or_equiv
   _atom_site_type_symbol
    H   1.0     0.224034     0.992742     0.598507  Biso 1.000000     H
    H   1.0     0.724041     0.992741     0.598512  Biso 1.000000     H
    H   1.0    -0.009712     0.931943     0.553630  Biso 1.000000     H
    H   1.0     0.490295     0.931942     0.553633  Biso 1.000000     H
    H   1.0     0.025968     0.492754     0.401464  Biso 1.000000     H
    H   1.0     0.525976     0.492754     0.401464  Biso 1.000000     H
    H   1.0     0.259710     0.431944     0.446359  Biso 1.000000     H
    H   1.0     0.759718     0.431944     0.446359  Biso 1.000000     H
    H   1.0     0.275972     0.007238     0.098528  Biso 1.000000     H
    H   1.0     0.775980     0.007236     0.098520  Biso 1.000000     H
    H   1.0     0.509718     0.068037     0.053645  Biso 1.000000     H
    H   1.0     0.000000     0.068036     0.053640  Biso 1.000000     H
    H   1.0     0.474034     0.507226     0.901451  Biso 1.000000     H
    H   1.0     0.974043     0.507222     0.901458  Biso 1.000000     H
    H   1.0     0.240290     0.568031     0.946340  Biso 1.000000     H
    H   1.0     0.740299     0.568027     0.946346  Biso 1.000000     H
    H   1.0     0.275970     0.007230     0.401476  Biso 1.000000     H
    H   1.0     0.775979     0.007234     0.401470  Biso 1.000000     H
    H   1.0     0.509715     0.068035     0.446355  Biso 1.000000     H
    H   1.0     0.000000     0.068038     0.446350  Biso 1.000000     H
    H   1.0     0.474037     0.507230     0.598523  Biso 1.000000     H
    H   1.0     0.974045     0.507232     0.598528  Biso 1.000000     H
    H   1.0     0.240293     0.568036     0.553633  Biso 1.000000     H
    H   1.0     0.740301     0.568037     0.553637  Biso 1.000000     H
    H   1.0     0.224030     0.992742     0.901458  Biso 1.000000     H
    H   1.0     0.724039     0.992747     0.901466  Biso 1.000000     H
    H   1.0    -0.009716     0.931944     0.946338  Biso 1.000000     H
    H   1.0     0.490292     0.931949     0.946344  Biso 1.000000     H
    H   1.0     0.025969     0.492752     0.098529  Biso 1.000000     H
    H   1.0     0.525977     0.492752     0.098528  Biso 1.000000     H
    H   1.0     0.259712     0.431947     0.053633  Biso 1.000000     H
    H   1.0     0.759720     0.431946     0.053632  Biso 1.000000     H
    C   1.0     0.222493     0.825370     0.502908  Biso 1.000000     C
    C   1.0     0.722500     0.825374     0.502903  Biso 1.000000     C
    C   1.0     0.163893     0.882832     0.538226  Biso 1.000000     C
    C   1.0     0.663900     0.882832     0.538229  Biso 1.000000     C
    C   1.0     0.171511     0.960663     0.580066  Biso 1.000000     C
    C   1.0     0.671518     0.960662     0.580069  Biso 1.000000     C
    C   1.0     0.096293     0.990006     0.591116  Biso 1.000000     C
    C   1.0     0.596301     0.990008     0.591115  Biso 1.000000     C
    C   1.0     0.066880     0.073667     0.622726  Biso 1.000000     C
    C   1.0     0.566889     0.073670     0.622723  Biso 1.000000     C
    C   1.0     0.027504     0.325389     0.497078  Biso 1.000000     C
    C   1.0     0.527511     0.325389     0.497078  Biso 1.000000     C
    C   1.0     0.086103     0.382846     0.461756  Biso 1.000000     C
    C   1.0     0.586111     0.382846     0.461756  Biso 1.000000     C
    C   1.0     0.078489     0.460674     0.419912  Biso 1.000000     C
    C   1.0     0.578497     0.460674     0.419912  Biso 1.000000     C
    C   1.0     0.153708     0.490014     0.408870  Biso 1.000000     C
    C   1.0     0.653716     0.490014     0.408870  Biso 1.000000     C
    C   1.0     0.183129     0.573647     0.377260  Biso 1.000000     C
    C   1.0     0.683137     0.573648     0.377260  Biso 1.000000     C
    C   1.0     0.277507     0.174601     0.000000  Biso 1.000000     C
    C   1.0     0.777513     0.174607     0.000000  Biso 1.000000     C
    C   1.0     0.336112     0.117145     0.038241  Biso 1.000000     C
    C   1.0     0.836120     0.117145     0.038237  Biso 1.000000     C
    C   1.0     0.328495     0.039316     0.080082  Biso 1.000000     C
    C   1.0     0.828502     0.039315     0.080078  Biso 1.000000     C
    C   1.0     0.403712     0.009969     0.091125  Biso 1.000000     C
    C   1.0     0.903720     0.009971     0.091126  Biso 1.000000     C
    C   1.0     0.433123     0.926306     0.122733  Biso 1.000000     C
    C   1.0     0.933132     0.926310     0.122737  Biso 1.000000     C
    C   1.0     0.472499     0.674587    -0.002910  Biso 1.000000     C
    C   1.0     0.972508     0.674593    -0.002917  Biso 1.000000     C
    C   1.0     0.413895     0.617133     0.961742  Biso 1.000000     C
    C   1.0     0.913903     0.617130     0.961746  Biso 1.000000     C
    C   1.0     0.421512     0.539305     0.919898  Biso 1.000000     C
    C   1.0     0.921520     0.539302     0.919902  Biso 1.000000     C
    C   1.0     0.346294     0.509962     0.908855  Biso 1.000000     C
    C   1.0     0.846302     0.509963     0.908854  Biso 1.000000     C
    C   1.0     0.316873     0.426327     0.877247  Biso 1.000000     C
    C   1.0     0.816881     0.426331     0.877241  Biso 1.000000     C
    C   1.0     0.277508     0.174605     0.497073  Biso 1.000000     C
    C   1.0     0.777517     0.174601     0.497079  Biso 1.000000     C
    C   1.0     0.336109     0.117142     0.461757  Biso 1.000000     C
    C   1.0     0.836117     0.117144     0.461754  Biso 1.000000     C
    C   1.0     0.328493     0.039311     0.419918  Biso 1.000000     C
    C   1.0     0.828501     0.039313     0.419914  Biso 1.000000     C
    C   1.0     0.403711     0.009969     0.408869  Biso 1.000000     C
    C   1.0     0.903719     0.009968     0.408870  Biso 1.000000     C
    C   1.0     0.433123     0.926309     0.377256  Biso 1.000000     C
    C   1.0     0.933131     0.926307     0.377260  Biso 1.000000     C
    C   1.0     0.472497     0.674588     0.502901  Biso 1.000000     C
    C   1.0     0.972504     0.674585     0.502896  Biso 1.000000     C
    C   1.0     0.413899     0.617136     0.538231  Biso 1.000000     C
    C   1.0     0.913907     0.617137     0.538234  Biso 1.000000     C
    C   1.0     0.421515     0.539308     0.580076  Biso 1.000000     C
    C   1.0     0.921523     0.539310     0.580078  Biso 1.000000     C
    C   1.0     0.346297     0.509966     0.591118  Biso 1.000000     C
    C   1.0     0.846305     0.509965     0.591117  Biso 1.000000     C
    C   1.0     0.316875     0.426330     0.622722  Biso 1.000000     C
    C   1.0     0.816884     0.426328     0.622719  Biso 1.000000     C
    C   1.0     0.222494     0.825376    -0.002910  Biso 1.000000     C
    C   1.0     0.722503     0.825370    -0.002917  Biso 1.000000     C
    C   1.0     0.163889     0.882834     0.961742  Biso 1.000000     C
    C   1.0     0.663897     0.882837     0.961747  Biso 1.000000     C
    C   1.0     0.171507     0.960665     0.919902  Biso 1.000000     C
    C   1.0     0.671516     0.960668     0.919907  Biso 1.000000     C
    C   1.0     0.096290     0.990011     0.908858  Biso 1.000000     C
    C   1.0     0.596298     0.990011     0.908857  Biso 1.000000     C
    C   1.0     0.066878     0.073672     0.877247  Biso 1.000000     C
    C   1.0     0.566887     0.073670     0.877242  Biso 1.000000     C
    C   1.0     0.027501     0.325386     0.000000  Biso 1.000000     C
    C   1.0     0.527508     0.325386     0.000000  Biso 1.000000     C
    C   1.0     0.086106     0.382845     0.038236  Biso 1.000000     C
    C   1.0     0.586114     0.382845     0.038235  Biso 1.000000     C
    C   1.0     0.078491     0.460672     0.080081  Biso 1.000000     C
    C   1.0     0.578499     0.460672     0.080081  Biso 1.000000     C
    C   1.0     0.153709     0.490012     0.091126  Biso 1.000000     C
    C   1.0     0.653717     0.490012     0.091125  Biso 1.000000     C
    C   1.0     0.183129     0.573647     0.122735  Biso 1.000000     C
    C   1.0     0.683138     0.573646     0.122735  Biso 1.000000     C
    C   1.0     0.224966     0.790014     0.249996  Biso 1.000000     C
    C   1.0     0.724975     0.790016     0.249995  Biso 1.000000     C
    C   1.0     0.025013     0.290056     0.749984  Biso 1.000000     C
    C   1.0     0.525019     0.290058     0.749984  Biso 1.000000     C
    C   1.0     0.275041     0.209976     0.749984  Biso 1.000000     C
    C   1.0     0.775048     0.209974     0.749984  Biso 1.000000     C
    C   1.0     0.474980     0.709932     0.249995  Biso 1.000000     C
    C   1.0     0.974989     0.709931     0.249995  Biso 1.000000     C
    N   1.0     0.049213     0.930130     0.556337  Biso 1.000000     N
    N   1.0     0.549220     0.930127     0.556343  Biso 1.000000     N
    N   1.0     0.088596     0.864716     0.523596  Biso 1.000000     N
    N   1.0     0.588603     0.864718     0.523595  Biso 1.000000     N
    N   1.0     0.200785     0.430131     0.443643  Biso 1.000000     N
    N   1.0     0.700793     0.430131     0.443643  Biso 1.000000     N
    N   1.0     0.161399     0.364728     0.476395  Biso 1.000000     N
    N   1.0     0.661407     0.364728     0.476395  Biso 1.000000     N
    N   1.0     0.450792     0.069852     0.056357  Biso 1.000000     N
    N   1.0     0.950799     0.069848     0.056348  Biso 1.000000     N
    N   1.0     0.411408     0.135259     0.023605  Biso 1.000000     N
    N   1.0     0.911416     0.135261     0.023604  Biso 1.000000     N
    N   1.0     0.299215     0.569846     0.943625  Biso 1.000000     N
    N   1.0     0.799224     0.569839     0.943636  Biso 1.000000     N
    N   1.0     0.338599     0.635249     0.976380  Biso 1.000000     N
    N   1.0     0.838607     0.635249     0.976381  Biso 1.000000     N
    N   1.0     0.450789     0.069846     0.443647  Biso 1.000000     N
    N   1.0     0.950798     0.069852     0.443639  Biso 1.000000     N
    N   1.0     0.411406     0.135259     0.476389  Biso 1.000000     N
    N   1.0     0.911413     0.135259     0.476388  Biso 1.000000     N
    N   1.0     0.299219     0.569851     0.556348  Biso 1.000000     N
    N   1.0     0.799226     0.569855     0.556356  Biso 1.000000     N
    N   1.0     0.338603     0.635253     0.523592  Biso 1.000000     N
    N   1.0     0.838611     0.635252     0.523593  Biso 1.000000     N
    N   1.0     0.049209     0.930128     0.943626  Biso 1.000000     N
    N   1.0     0.549218     0.930137     0.943637  Biso 1.000000     N
    N   1.0     0.088593     0.864721     0.976377  Biso 1.000000     N
    N   1.0     0.588600     0.864721     0.976377  Biso 1.000000     N
    N   1.0     0.200786     0.430134     0.056346  Biso 1.000000     N
    N   1.0     0.700795     0.430134     0.056345  Biso 1.000000     N
    N   1.0     0.161402     0.364727     0.023599  Biso 1.000000     N
    N   1.0     0.661410     0.364727     0.023597  Biso 1.000000     N
    O   1.0     0.293100     0.844425     0.503182  Biso 1.000000     O
    O   1.0     0.793108     0.844424     0.503184  Biso 1.000000     O
    O   1.0     0.196342     0.756936     0.467079  Biso 1.000000     O
    O   1.0     0.696349     0.756936     0.467080  Biso 1.000000     O
    O   1.0    -0.005714     0.087100     0.619666  Biso 1.000000     O
    O   1.0     0.494295     0.087104     0.619666  Biso 1.000000     O
    O   1.0     0.117380     0.126694     0.647107  Biso 1.000000     O
    O   1.0     0.617390     0.126694     0.647108  Biso 1.000000     O
    O   1.0     0.196347     0.810762     0.315864  Biso 1.000000     O
    O   1.0     0.696354     0.810762     0.315863  Biso 1.000000     O
    O   1.0     0.456901     0.344437     0.496794  Biso 1.000000     O
    O   1.0     0.956909     0.344437     0.496794  Biso 1.000000     O
    O   1.0     0.053654     0.256950     0.532901  Biso 1.000000     O
    O   1.0     0.553662     0.256950     0.532901  Biso 1.000000     O
    O   1.0     0.255725     0.587065     0.380313  Biso 1.000000     O
    O   1.0     0.755732     0.587067     0.380314  Biso 1.000000     O
    O   1.0     0.132632     0.626676     0.352873  Biso 1.000000     O
    O   1.0     0.632639     0.626677     0.352873  Biso 1.000000     O
    O   1.0     0.053652     0.310769     0.684117  Biso 1.000000     O
    O   1.0     0.553660     0.310768     0.684117  Biso 1.000000     O
    O   1.0     0.206903     0.155553     0.003197  Biso 1.000000     O
    O   1.0     0.706911     0.155553     0.003194  Biso 1.000000     O
    O   1.0     0.303657     0.243042     0.967069  Biso 1.000000     O
    O   1.0     0.803664     0.243042     0.967067  Biso 1.000000     O
    O   1.0     0.505716     0.912871     0.119677  Biso 1.000000     O
    O   1.0     0.000000     0.912876     0.119677  Biso 1.000000     O
    O   1.0     0.382620     0.873285     0.147119  Biso 1.000000     O
    O   1.0     0.882630     0.873285     0.147118  Biso 1.000000     O
    O   1.0     0.303650     0.189211     0.815852  Biso 1.000000     O
    O   1.0     0.803657     0.189211     0.815852  Biso 1.000000     O
    O   1.0     0.043096     0.655541     0.996785  Biso 1.000000     O
    O   1.0     0.543104     0.655542     0.996782  Biso 1.000000     O
    O   1.0     0.446348     0.743026     0.032912  Biso 1.000000     O
    O   1.0     0.946356     0.743025     0.032914  Biso 1.000000     O
    O   1.0     0.244278     0.412909     0.880300  Biso 1.000000     O
    O   1.0     0.744286     0.412911     0.880300  Biso 1.000000     O
    O   1.0     0.367372     0.373300     0.852859  Biso 1.000000     O
    O   1.0     0.867379     0.373299     0.852860  Biso 1.000000     O
    O   1.0     0.446349     0.689205     0.184128  Biso 1.000000     O
    O   1.0     0.946356     0.689206     0.184128  Biso 1.000000     O
    O   1.0     0.206900     0.155552     0.496796  Biso 1.000000     O
    O   1.0     0.706908     0.155554     0.496794  Biso 1.000000     O
    O   1.0     0.303658     0.243041     0.532900  Biso 1.000000     O
    O   1.0     0.803666     0.243041     0.532899  Biso 1.000000     O
    O   1.0     0.505716     0.912874     0.380314  Biso 1.000000     O
    O   1.0     0.000000     0.912874     0.380314  Biso 1.000000     O
    O   1.0     0.382621     0.873285     0.352873  Biso 1.000000     O
    O   1.0     0.882629     0.873286     0.352872  Biso 1.000000     O
    O   1.0     0.303651     0.189212     0.684116  Biso 1.000000     O
    O   1.0     0.803658     0.189212     0.684116  Biso 1.000000     O
    O   1.0     0.043100     0.655543     0.503187  Biso 1.000000     O
    O   1.0     0.543107     0.655542     0.503185  Biso 1.000000     O
    O   1.0     0.446347     0.743028     0.467079  Biso 1.000000     O
    O   1.0     0.946354     0.743028     0.467080  Biso 1.000000     O
    O   1.0     0.244279     0.412915     0.619668  Biso 1.000000     O
    O   1.0     0.744287     0.412913     0.619668  Biso 1.000000     O
    O   1.0     0.367372     0.373300     0.647107  Biso 1.000000     O
    O   1.0     0.867381     0.373300     0.647108  Biso 1.000000     O
    O   1.0     0.446349     0.689205     0.315863  Biso 1.000000     O
    O   1.0     0.946356     0.689206     0.315863  Biso 1.000000     O
    O   1.0     0.293097     0.844424     0.996782  Biso 1.000000     O
    O   1.0     0.793105     0.844425     0.996785  Biso 1.000000     O
    O   1.0     0.196344     0.756936     0.032910  Biso 1.000000     O
    O   1.0     0.696351     0.756937     0.032912  Biso 1.000000     O
    O   1.0    -0.005715     0.087106     0.880302  Biso 1.000000     O
    O   1.0     0.494294     0.087107     0.880303  Biso 1.000000     O
    O   1.0     0.117380     0.126693     0.852859  Biso 1.000000     O
    O   1.0     0.617388     0.126695     0.852859  Biso 1.000000     O
    O   1.0     0.196347     0.810763     0.184128  Biso 1.000000     O
    O   1.0     0.696354     0.810762     0.184128  Biso 1.000000     O
    O   1.0     0.456905     0.344437     0.003194  Biso 1.000000     O
    O   1.0     0.956912     0.344437     0.003194  Biso 1.000000     O
    O   1.0     0.053652     0.256951     0.967066  Biso 1.000000     O
    O   1.0     0.553660     0.256952     0.967065  Biso 1.000000     O
    O   1.0     0.255724     0.587068     0.119678  Biso 1.000000     O
    O   1.0     0.755733     0.587067     0.119678  Biso 1.000000     O
    O   1.0     0.132631     0.626677     0.147117  Biso 1.000000     O
    O   1.0     0.632639     0.626677     0.147117  Biso 1.000000     O
    O   1.0     0.053651     0.310769     0.815852  Biso 1.000000     O
    O   1.0     0.553659     0.310768     0.815852  Biso 1.000000     O
    O   1.0     0.289797     0.744725     0.249995  Biso 1.000000     O
    O   1.0     0.789805     0.744725     0.249995  Biso 1.000000     O
    O   1.0     0.460209     0.244733     0.749984  Biso 1.000000     O
    O   1.0     0.960216     0.244734     0.749984  Biso 1.000000     O
    O   1.0     0.210200     0.255249     0.749983  Biso 1.000000     O
    O   1.0     0.710208     0.255250     0.749984  Biso 1.000000     O
    O   1.0     0.039792     0.755241     0.249995  Biso 1.000000     O
    O   1.0     0.539800     0.755240     0.249995  Biso 1.000000     O
   La   1.0     0.322105     0.735218     0.388901  Biso 1.000000    La
   La   1.0     0.822113     0.735219     0.388902  Biso 1.000000    La
   La   1.0     0.427900     0.235238     0.611078  Biso 1.000000    La
   La   1.0     0.927907     0.235237     0.611078  Biso 1.000000    La
   La   1.0     0.177894     0.264758     0.888889  Biso 1.000000    La
   La   1.0     0.677901     0.264759     0.888887  Biso 1.000000    La
   La   1.0     0.072103     0.764740     0.111090  Biso 1.000000    La
   La   1.0     0.572110     0.764738     0.111090  Biso 1.000000    La
   La   1.0     0.177896     0.264760     0.611078  Biso 1.000000    La
   La   1.0     0.677905     0.264759     0.611077  Biso 1.000000    La
   La   1.0     0.072101     0.764737     0.388901  Biso 1.000000    La
   La   1.0     0.572109     0.764738     0.388901  Biso 1.000000    La
   La   1.0     0.322107     0.735219     0.111090  Biso 1.000000    La
   La   1.0     0.822115     0.735218     0.111091  Biso 1.000000    La
   La   1.0     0.427897     0.235237     0.888889  Biso 1.000000    La
   La   1.0     0.927906     0.235237     0.888889  Biso 1.000000    La
