#======================================================================

# CRYSTAL DATA

#----------------------------------------------------------------------

data_VESTA_phase_1


_pd_phase_name                         MOF
_cell_length_a                         17.17900
_cell_length_b                         20.98600
_cell_length_c                         22.62000
_cell_angle_alpha                      65.44600
_cell_angle_beta                       73.35000
_cell_angle_gamma                      78.47200
_symmetry_space_group_name_H-M         "P 1"
_symmetry_Int_Tables_number            1

loop_
_symmetry_equiv_pos_as_xyz
   "x, y, z"

loop_
   _atom_site_label
   _atom_site_occupancy
   _atom_site_fract_x
   _atom_site_fract_y
   _atom_site_fract_z
   _atom_site_adp_type
   _atom_site_B_iso_or_equiv
   _atom_site_type_symbol
    H   1.0     0.143284     0.343743     0.192785  Biso 1.000000     H
    H   1.0     0.013733     0.332862     0.789186  Biso 1.000000     H
    H   1.0     0.121599     0.835864     0.192785  Biso 1.000000     H
    H   1.0    -0.007930     0.824983     0.789181  Biso 1.000000     H
    H   1.0     0.601249     0.343744     0.192788  Biso 1.000000     H
    H   1.0     0.471709     0.332864     0.789184  Biso 1.000000     H
    H   1.0     0.579584     0.835864     0.192783  Biso 1.000000     H
    H   1.0     0.450040     0.824984     0.789180  Biso 1.000000     H
    H   1.0     0.145604     0.259448     0.401536  Biso 1.000000     H
    H   1.0     0.016057     0.248566     0.997936  Biso 1.000000     H
    H   1.0     0.123923     0.751568     0.401535  Biso 1.000000     H
    H   1.0    -0.005608     0.740687     0.997931  Biso 1.000000     H
    H   1.0     0.603572     0.259448     0.401538  Biso 1.000000     H
    H   1.0     0.474034     0.248568     0.997934  Biso 1.000000     H
    H   1.0     0.581905     0.751569     0.401533  Biso 1.000000     H
    H   1.0     0.452365     0.740690     0.997929  Biso 1.000000     H
    H   1.0     0.461510     0.028468     0.095578  Biso 1.000000     H
    H   1.0     0.331965     0.017595     0.691970  Biso 1.000000     H
    H   1.0     0.439840     0.520578     0.095581  Biso 1.000000     H
    H   1.0     0.310296     0.509693     0.691981  Biso 1.000000     H
    H   1.0     0.919483     0.028469     0.095577  Biso 1.000000     H
    H   1.0     0.789933     0.017589     0.691973  Biso 1.000000     H
    H   1.0     0.897814     0.520571     0.095586  Biso 1.000000     H
    H   1.0     0.768264     0.509696     0.691976  Biso 1.000000     H
    H   1.0     0.302490     0.483177    -0.017408  Biso 1.000000     H
    H   1.0     0.172945     0.472292     0.578993  Biso 1.000000     H
    H   1.0     0.280817     0.975289    -0.017408  Biso 1.000000     H
    H   1.0     0.151271     0.964414     0.578985  Biso 1.000000     H
    H   1.0     0.760459     0.483171    -0.017400  Biso 1.000000     H
    H   1.0     0.630909     0.472299     0.578989  Biso 1.000000     H
    H   1.0     0.738786     0.975293    -0.017409  Biso 1.000000     H
    H   1.0     0.609237     0.964412     0.578987  Biso 1.000000     H
    H   1.0     0.002387     0.256754     0.583347  Biso 1.000000     H
    H   1.0    -0.127153     0.245875     0.000000  Biso 1.000000     H
    H   1.0    -0.019283     0.748862     0.583345  Biso 1.000000     H
    H   1.0    -0.148824     0.737984     0.000000  Biso 1.000000     H
    H   1.0     0.460353     0.256759     0.583348  Biso 1.000000     H
    H   1.0     0.330818     0.245876     0.000000  Biso 1.000000     H
    H   1.0     0.438687     0.748864     0.583344  Biso 1.000000     H
    H   1.0     0.309149     0.737984     0.000000  Biso 1.000000     H
    H   1.0     0.386238     0.142133     0.095102  Biso 1.000000     H
    H   1.0     0.256688     0.131257     0.691501  Biso 1.000000     H
    H   1.0     0.364567     0.634242     0.095102  Biso 1.000000     H
    H   1.0     0.235023     0.623362     0.691496  Biso 1.000000     H
    H   1.0     0.844210     0.142133     0.095103  Biso 1.000000     H
    H   1.0     0.714668     0.131252     0.691499  Biso 1.000000     H
    H   1.0     0.822540     0.634241     0.095102  Biso 1.000000     H
    H   1.0     0.692996     0.623362     0.691499  Biso 1.000000     H
    H   1.0     0.163475     0.137475     0.403614  Biso 1.000000     H
    H   1.0     0.033940     0.126593     0.000000  Biso 1.000000     H
    H   1.0     0.141817     0.629595     0.403607  Biso 1.000000     H
    H   1.0     0.012258     0.618714     0.000000  Biso 1.000000     H
    H   1.0     0.621465     0.137475     0.403611  Biso 1.000000     H
    H   1.0     0.491920     0.126595     0.000000  Biso 1.000000     H
    H   1.0     0.599786     0.629596     0.403609  Biso 1.000000     H
    H   1.0     0.470245     0.618717     0.000000  Biso 1.000000     H
    H   1.0     0.161155     0.221770     0.194863  Biso 1.000000     H
    H   1.0     0.031616     0.210889     0.791261  Biso 1.000000     H
    H   1.0     0.139494     0.713892     0.194857  Biso 1.000000     H
    H   1.0     0.009937     0.703009     0.791260  Biso 1.000000     H
    H   1.0     0.619142     0.221771     0.194861  Biso 1.000000     H
    H   1.0     0.489594     0.210891     0.791259  Biso 1.000000     H
    H   1.0     0.597465     0.713891     0.194859  Biso 1.000000     H
    H   1.0     0.467921     0.703010     0.791256  Biso 1.000000     H
    H   1.0    -0.154682     0.452736     0.500836  Biso 1.000000     H
    H   1.0    -0.284215     0.441846     0.000000  Biso 1.000000     H
    H   1.0    -0.176350     0.944836     0.500844  Biso 1.000000     H
    H   1.0    -0.305885     0.933959     0.000000  Biso 1.000000     H
    H   1.0     0.303300     0.452730     0.500841  Biso 1.000000     H
    H   1.0     0.173763     0.441852     0.000000  Biso 1.000000     H
    H   1.0     0.281630     0.944841     0.500842  Biso 1.000000     H
    H   1.0     0.152093     0.933955     0.000000  Biso 1.000000     H
    H   1.0     0.004346    -0.001990     0.613831  Biso 1.000000     H
    H   1.0    -0.125188    -0.012869     0.000000  Biso 1.000000     H
    H   1.0    -0.017327     0.490130     0.613823  Biso 1.000000     H
    H   1.0    -0.146860     0.479241     0.000000  Biso 1.000000     H
    H   1.0     0.462324    -0.001983     0.613828  Biso 1.000000     H
    H   1.0     0.332786    -0.012871     0.000000  Biso 1.000000     H
    H   1.0     0.440651     0.490126     0.613830  Biso 1.000000     H
    H   1.0     0.311113     0.479248     0.000000  Biso 1.000000     H
    H   1.0     0.304412     0.224440     0.013055  Biso 1.000000     H
    H   1.0     0.174864     0.213564     0.609453  Biso 1.000000     H
    H   1.0     0.282743     0.716547     0.013053  Biso 1.000000     H
    H   1.0     0.153197     0.705670     0.609449  Biso 1.000000     H
    H   1.0     0.762386     0.224439     0.013054  Biso 1.000000     H
    H   1.0     0.632841     0.213561     0.609453  Biso 1.000000     H
    H   1.0     0.740715     0.716547     0.013053  Biso 1.000000     H
    H   1.0     0.611172     0.705668     0.609450  Biso 1.000000     H
    H   1.0    -0.079440     0.339065     0.501302  Biso 1.000000     H
    H   1.0    -0.208978     0.328182     0.000000  Biso 1.000000     H
    H   1.0    -0.101109     0.831172     0.501299  Biso 1.000000     H
    H   1.0    -0.230650     0.820293     0.000000  Biso 1.000000     H
    H   1.0     0.378529     0.339066     0.501300  Biso 1.000000     H
    H   1.0     0.248992     0.328185     0.000000  Biso 1.000000     H
    H   1.0     0.356860     0.831175     0.501298  Biso 1.000000     H
    H   1.0     0.227323     0.820292     0.000000  Biso 1.000000     H
    C   1.0     0.133391     0.381820     0.295246  Biso 1.000000     C
    C   1.0     0.003850     0.370939     0.891645  Biso 1.000000     C
    C   1.0     0.111719     0.873940     0.295244  Biso 1.000000     C
    C   1.0    -0.017825     0.863059     0.891643  Biso 1.000000     C
    C   1.0     0.591366     0.381820     0.295246  Biso 1.000000     C
    C   1.0     0.461824     0.370941     0.891643  Biso 1.000000     C
    C   1.0     0.569692     0.873941     0.295244  Biso 1.000000     C
    C   1.0     0.440151     0.863062     0.891640  Biso 1.000000     C
    C   1.0     0.143219     0.308890     0.296983  Biso 1.000000     C
    C   1.0     0.013662     0.298009     0.893385  Biso 1.000000     C
    C   1.0     0.121523     0.801011     0.296984  Biso 1.000000     C
    C   1.0    -0.007992     0.790130     0.893378  Biso 1.000000     C
    C   1.0     0.601172     0.308891     0.296987  Biso 1.000000     C
    C   1.0     0.471639     0.298011     0.893382  Biso 1.000000     C
    C   1.0     0.579514     0.801011     0.296981  Biso 1.000000     C
    C   1.0     0.449971     0.790132     0.893378  Biso 1.000000     C
    C   1.0     0.147603     0.298303     0.238682  Biso 1.000000     C
    C   1.0     0.018056     0.287421     0.835082  Biso 1.000000     C
    C   1.0     0.125926     0.790423     0.238680  Biso 1.000000     C
    C   1.0    -0.003612     0.779542     0.835078  Biso 1.000000     C
    C   1.0     0.605575     0.298303     0.238683  Biso 1.000000     C
    C   1.0     0.476033     0.287423     0.835079  Biso 1.000000     C
    C   1.0     0.583906     0.790424     0.238679  Biso 1.000000     C
    C   1.0     0.454363     0.779543     0.835076  Biso 1.000000     C
    C   1.0     0.149071     0.250818     0.356538  Biso 1.000000     C
    C   1.0     0.019526     0.239937     0.952937  Biso 1.000000     C
    C   1.0     0.127396     0.742939     0.356535  Biso 1.000000     C
    C   1.0    -0.002143     0.732057     0.952934  Biso 1.000000     C
    C   1.0     0.607045     0.250819     0.356538  Biso 1.000000     C
    C   1.0     0.477504     0.239939     0.952935  Biso 1.000000     C
    C   1.0     0.585375     0.742939     0.356535  Biso 1.000000     C
    C   1.0     0.455833     0.732060     0.952931  Biso 1.000000     C
    C   1.0     0.308826     0.022889     0.089957  Biso 1.000000     C
    C   1.0     0.179281     0.012014     0.686351  Biso 1.000000     C
    C   1.0     0.287153     0.515000     0.089962  Biso 1.000000     C
    C   1.0     0.157609     0.504117     0.686361  Biso 1.000000     C
    C   1.0     0.766797     0.022892     0.089957  Biso 1.000000     C
    C   1.0     0.637249     0.012012     0.686352  Biso 1.000000     C
    C   1.0     0.745126     0.514994     0.089967  Biso 1.000000     C
    C   1.0     0.615577     0.504124     0.686356  Biso 1.000000     C
    C   1.0     0.385578     0.010615     0.043666  Biso 1.000000     C
    C   1.0     0.256032    -0.000257     0.640058  Biso 1.000000     C
    C   1.0     0.363904     0.502732     0.043667  Biso 1.000000     C
    C   1.0     0.234360     0.491844     0.640069  Biso 1.000000     C
    C   1.0     0.843548     0.010620     0.043664  Biso 1.000000     C
    C   1.0     0.713999    -0.000262     0.640060  Biso 1.000000     C
    C   1.0     0.821876     0.502723     0.043674  Biso 1.000000     C
    C   1.0     0.692326     0.491852     0.640063  Biso 1.000000     C
    C   1.0     0.460719     0.015727     0.053768  Biso 1.000000     C
    C   1.0     0.331173     0.004854     0.650160  Biso 1.000000     C
    C   1.0     0.439046     0.507842     0.053769  Biso 1.000000     C
    C   1.0     0.309502     0.496958     0.650168  Biso 1.000000     C
    C   1.0     0.918690     0.015730     0.053767  Biso 1.000000     C
    C   1.0     0.789141     0.004849     0.650163  Biso 1.000000     C
    C   1.0     0.897019     0.507835     0.053774  Biso 1.000000     C
    C   1.0     0.767468     0.496963     0.650163  Biso 1.000000     C
    C   1.0     0.361260     0.486864    -0.010184  Biso 1.000000     C
    C   1.0     0.231715     0.475980     0.586216  Biso 1.000000     C
    C   1.0     0.339586     0.978977    -0.010183  Biso 1.000000     C
    C   1.0     0.210040     0.968103     0.586210  Biso 1.000000     C
    C   1.0     0.819230     0.486858    -0.010178  Biso 1.000000     C
    C   1.0     0.689680     0.475987     0.586211  Biso 1.000000     C
    C   1.0     0.797555     0.978981    -0.010184  Biso 1.000000     C
    C   1.0     0.668007     0.968099     0.586212  Biso 1.000000     C
    C   1.0     0.082987     0.150790     0.094147  Biso 1.000000     C
    C   1.0    -0.046555     0.139908     0.690542  Biso 1.000000     C
    C   1.0     0.061316     0.642899     0.094145  Biso 1.000000     C
    C   1.0    -0.068226     0.632017     0.690541  Biso 1.000000     C
    C   1.0     0.540959     0.150791     0.094146  Biso 1.000000     C
    C   1.0     0.411410     0.139916     0.690546  Biso 1.000000     C
    C   1.0     0.519289     0.642900     0.094145  Biso 1.000000     C
    C   1.0     0.389745     0.632020     0.690540  Biso 1.000000     C
    C   1.0     0.034514     0.200413     0.045917  Biso 1.000000     C
    C   1.0    -0.095029     0.189532     0.642313  Biso 1.000000     C
    C   1.0     0.012843     0.692522     0.045916  Biso 1.000000     C
    C   1.0    -0.116698     0.681640     0.642311  Biso 1.000000     C
    C   1.0     0.492486     0.200414     0.045916  Biso 1.000000     C
    C   1.0     0.362936     0.189539     0.642316  Biso 1.000000     C
    C   1.0     0.470817     0.692522     0.045915  Biso 1.000000     C
    C   1.0     0.341272     0.681642     0.642309  Biso 1.000000     C
    C   1.0    -0.060100     0.247887     0.588738  Biso 1.000000     C
    C   1.0    -0.189640     0.237007     0.000000  Biso 1.000000     C
    C   1.0    -0.081770     0.739995     0.588736  Biso 1.000000     C
    C   1.0    -0.211311     0.729117     0.000000  Biso 1.000000     C
    C   1.0     0.397867     0.247891     0.588739  Biso 1.000000     C
    C   1.0     0.268332     0.237008     0.000000  Biso 1.000000     C
    C   1.0     0.376200     0.739997     0.588734  Biso 1.000000     C
    C   1.0     0.246663     0.729116     0.000000  Biso 1.000000     C
    C   1.0     0.412198     0.187846     0.053487  Biso 1.000000     C
    C   1.0     0.282649     0.176970     0.649886  Biso 1.000000     C
    C   1.0     0.390528     0.679955     0.053486  Biso 1.000000     C
    C   1.0     0.260983     0.669075     0.649881  Biso 1.000000     C
    C   1.0     0.870171     0.187846     0.053487  Biso 1.000000     C
    C   1.0     0.740628     0.176965     0.649884  Biso 1.000000     C
    C   1.0     0.848501     0.679954     0.053486  Biso 1.000000     C
    C   1.0     0.718958     0.669074     0.649883  Biso 1.000000     C
    C   1.0     0.173366     0.099397     0.301152  Biso 1.000000     C
    C   1.0     0.043823     0.088515     0.897550  Biso 1.000000     C
    C   1.0     0.151693     0.591517     0.301149  Biso 1.000000     C
    C   1.0     0.022151     0.580636     0.897547  Biso 1.000000     C
    C   1.0     0.631339     0.099397     0.301153  Biso 1.000000     C
    C   1.0     0.501798     0.088517     0.897549  Biso 1.000000     C
    C   1.0     0.609667     0.591517     0.301150  Biso 1.000000     C
    C   1.0     0.480124     0.580637     0.897547  Biso 1.000000     C
    C   1.0     0.163536     0.172326     0.299417  Biso 1.000000     C
    C   1.0     0.034007     0.161445     0.895813  Biso 1.000000     C
    C   1.0     0.141891     0.664447     0.299409  Biso 1.000000     C
    C   1.0     0.012316     0.653566     0.895814  Biso 1.000000     C
    C   1.0     0.621537     0.172327     0.299412  Biso 1.000000     C
    C   1.0     0.491984     0.161447     0.895811  Biso 1.000000     C
    C   1.0     0.599850     0.664447     0.299412  Biso 1.000000     C
    C   1.0     0.470310     0.653567     0.895809  Biso 1.000000     C
    C   1.0     0.159154     0.182914     0.357718  Biso 1.000000     C
    C   1.0     0.029614     0.172033     0.954116  Biso 1.000000     C
    C   1.0     0.137489     0.675035     0.357713  Biso 1.000000     C
    C   1.0     0.007939     0.664154     0.954113  Biso 1.000000     C
    C   1.0     0.617137     0.182915     0.357716  Biso 1.000000     C
    C   1.0     0.487593     0.172035     0.954113  Biso 1.000000     C
    C   1.0     0.595462     0.675036     0.357713  Biso 1.000000     C
    C   1.0     0.465921     0.664156     0.954110  Biso 1.000000     C
    C   1.0     0.157686     0.230399     0.239861  Biso 1.000000     C
    C   1.0     0.028144     0.219518     0.836260  Biso 1.000000     C
    C   1.0     0.136019     0.722520     0.239857  Biso 1.000000     C
    C   1.0     0.006470     0.711639     0.836258  Biso 1.000000     C
    C   1.0     0.615667     0.230399     0.239861  Biso 1.000000     C
    C   1.0     0.486122     0.219520     0.836258  Biso 1.000000     C
    C   1.0     0.593993     0.722520     0.239858  Biso 1.000000     C
    C   1.0     0.464450     0.711640     0.836255  Biso 1.000000     C
    C   1.0    -0.002005     0.458302     0.506455  Biso 1.000000     C
    C   1.0    -0.131538     0.447415     0.000000  Biso 1.000000     C
    C   1.0    -0.023676     0.950408     0.506464  Biso 1.000000     C
    C   1.0    -0.153212     0.939527     0.000000  Biso 1.000000     C
    C   1.0     0.455975     0.458296     0.506461  Biso 1.000000     C
    C   1.0     0.326437     0.447419     0.000000  Biso 1.000000     C
    C   1.0     0.434302     0.950410     0.506463  Biso 1.000000     C
    C   1.0     0.304764     0.939524     0.000000  Biso 1.000000     C
    C   1.0    -0.078747     0.470582     0.552750  Biso 1.000000     C
    C   1.0    -0.208279     0.459688     0.000000  Biso 1.000000     C
    C   1.0    -0.100419     0.962683     0.552760  Biso 1.000000     C
    C   1.0    -0.229954     0.951807     0.000000  Biso 1.000000     C
    C   1.0     0.379234     0.470574     0.552757  Biso 1.000000     C
    C   1.0     0.249696     0.459696     0.000000  Biso 1.000000     C
    C   1.0     0.357559     0.962694     0.552755  Biso 1.000000     C
    C   1.0     0.228022     0.951803     0.000000  Biso 1.000000     C
    C   1.0    -0.153889     0.465469     0.542650  Biso 1.000000     C
    C   1.0    -0.283421     0.454580     0.000000  Biso 1.000000     C
    C   1.0    -0.175560     0.957575     0.542656  Biso 1.000000     C
    C   1.0    -0.305095     0.946697     0.000000  Biso 1.000000     C
    C   1.0     0.304092     0.465463     0.542655  Biso 1.000000     C
    C   1.0     0.174554     0.454586     0.000000  Biso 1.000000     C
    C   1.0     0.282419     0.957580     0.542654  Biso 1.000000     C
    C   1.0     0.152882     0.946694     0.000000  Biso 1.000000     C
    C   1.0    -0.054425    -0.005676     0.606607  Biso 1.000000     C
    C   1.0    -0.183959    -0.016555     0.000000  Biso 1.000000     C
    C   1.0    -0.076100     0.486444     0.606602  Biso 1.000000     C
    C   1.0    -0.205632     0.475556     0.000000  Biso 1.000000     C
    C   1.0     0.403553    -0.005670     0.606604  Biso 1.000000     C
    C   1.0     0.274016    -0.016558     0.000000  Biso 1.000000     C
    C   1.0     0.381880     0.486439     0.606608  Biso 1.000000     C
    C   1.0     0.252341     0.475562     0.000000  Biso 1.000000     C
    C   1.0     0.223808     0.330405     0.502251  Biso 1.000000     C
    C   1.0     0.094272     0.319521     0.000000  Biso 1.000000     C
    C   1.0     0.202140     0.822511     0.502248  Biso 1.000000     C
    C   1.0     0.072604     0.811628     0.000000  Biso 1.000000     C
    C   1.0     0.681785     0.330401     0.502251  Biso 1.000000     C
    C   1.0     0.552248     0.319518     0.000000  Biso 1.000000     C
    C   1.0     0.660117     0.822507     0.502247  Biso 1.000000     C
    C   1.0     0.530576     0.811628     0.000000  Biso 1.000000     C
    C   1.0     0.272278     0.280787     0.550487  Biso 1.000000     C
    C   1.0     0.142744     0.269903     0.000000  Biso 1.000000     C
    C   1.0     0.250613     0.772892     0.550481  Biso 1.000000     C
    C   1.0     0.121075     0.762011     0.000000  Biso 1.000000     C
    C   1.0     0.730256     0.280783     0.550486  Biso 1.000000     C
    C   1.0     0.600719     0.269901     0.000000  Biso 1.000000     C
    C   1.0     0.708588     0.772890     0.550483  Biso 1.000000     C
    C   1.0     0.579047     0.762011     0.000000  Biso 1.000000     C
    C   1.0     0.366898     0.233308     0.007665  Biso 1.000000     C
    C   1.0     0.237350     0.222432     0.604063  Biso 1.000000     C
    C   1.0     0.345229     0.725417     0.007662  Biso 1.000000     C
    C   1.0     0.215683     0.714538     0.604058  Biso 1.000000     C
    C   1.0     0.824872     0.233307     0.007664  Biso 1.000000     C
    C   1.0     0.695328     0.222428     0.604062  Biso 1.000000     C
    C   1.0     0.803201     0.725416     0.007663  Biso 1.000000     C
    C   1.0     0.673658     0.714536     0.604060  Biso 1.000000     C
    C   1.0    -0.105401     0.293351     0.542916  Biso 1.000000     C
    C   1.0    -0.234939     0.282469     0.000000  Biso 1.000000     C
    C   1.0    -0.127070     0.785458     0.542914  Biso 1.000000     C
    C   1.0    -0.256611     0.774580     0.000000  Biso 1.000000     C
    C   1.0     0.352567     0.293354     0.542916  Biso 1.000000     C
    C   1.0     0.223031     0.282472     0.000000  Biso 1.000000     C
    C   1.0     0.330900     0.785461     0.542913  Biso 1.000000     C
    C   1.0     0.201363     0.774579     0.000000  Biso 1.000000     C
    O   1.0     0.125202     0.433393     0.241144  Biso 1.000000     O
    O   1.0    -0.004337     0.422512     0.837541  Biso 1.000000     O
    O   1.0     0.103534     0.925514     0.241140  Biso 1.000000     O
    O   1.0    -0.026015     0.914633     0.837540  Biso 1.000000     O
    O   1.0     0.583180     0.433393     0.241143  Biso 1.000000     O
    O   1.0     0.453636     0.422514     0.837540  Biso 1.000000     O
    O   1.0     0.561503     0.925514     0.241141  Biso 1.000000     O
    O   1.0     0.431962     0.914635     0.837537  Biso 1.000000     O
    O   1.0     0.134260     0.390134     0.347832  Biso 1.000000     O
    O   1.0     0.004723     0.379253     0.944229  Biso 1.000000     O
    O   1.0     0.112593     0.882254     0.347828  Biso 1.000000     O
    O   1.0    -0.016959     0.871372     0.944229  Biso 1.000000     O
    O   1.0     0.592241     0.390134     0.347830  Biso 1.000000     O
    O   1.0     0.462695     0.379254     0.944228  Biso 1.000000     O
    O   1.0     0.570560     0.882254     0.347830  Biso 1.000000     O
    O   1.0     0.441021     0.871374     0.944226  Biso 1.000000     O
    O   1.0     0.311540     0.043891     0.135587  Biso 1.000000     O
    O   1.0     0.181995     0.033013     0.731983  Biso 1.000000     O
    O   1.0     0.289865     0.536004     0.135591  Biso 1.000000     O
    O   1.0     0.160323     0.525125     0.731988  Biso 1.000000     O
    O   1.0     0.769511     0.043892     0.135589  Biso 1.000000     O
    O   1.0     0.639965     0.033012     0.731984  Biso 1.000000     O
    O   1.0     0.747838     0.536003     0.135594  Biso 1.000000     O
    O   1.0     0.618292     0.525127     0.731986  Biso 1.000000     O
    O   1.0     0.217830     0.505588     0.085396  Biso 1.000000     O
    O   1.0     0.088286     0.494708     0.681795  Biso 1.000000     O
    O   1.0     0.196150     0.997721     0.085386  Biso 1.000000     O
    O   1.0     0.066606     0.986842     0.681782  Biso 1.000000     O
    O   1.0     0.675802     0.505585     0.085401  Biso 1.000000     O
    O   1.0     0.546252     0.494717     0.681790  Biso 1.000000     O
    O   1.0     0.654122     0.997722     0.085387  Biso 1.000000     O
    O   1.0     0.524572     0.986847     0.681781  Biso 1.000000     O
    O   1.0     0.054403     0.092388     0.138052  Biso 1.000000     O
    O   1.0    -0.075139     0.081505     0.734446  Biso 1.000000     O
    O   1.0     0.032730     0.584498     0.138052  Biso 1.000000     O
    O   1.0    -0.096812     0.573617     0.734449  Biso 1.000000     O
    O   1.0     0.512376     0.092388     0.138050  Biso 1.000000     O
    O   1.0     0.382829     0.081511     0.734448  Biso 1.000000     O
    O   1.0     0.490702     0.584500     0.138053  Biso 1.000000     O
    O   1.0     0.361159     0.573619     0.734447  Biso 1.000000     O
    O   1.0     0.153547     0.164105     0.092333  Biso 1.000000     O
    O   1.0     0.024005     0.153222     0.688729  Biso 1.000000     O
    O   1.0     0.131879     0.656209     0.092329  Biso 1.000000     O
    O   1.0     0.002336     0.645329     0.688726  Biso 1.000000     O
    O   1.0     0.611519     0.164104     0.092333  Biso 1.000000     O
    O   1.0     0.481970     0.153230     0.688733  Biso 1.000000     O
    O   1.0     0.589852     0.656211     0.092328  Biso 1.000000     O
    O   1.0     0.460305     0.645334     0.688726  Biso 1.000000     O
    O   1.0     0.181553     0.047821     0.355255  Biso 1.000000     O
    O   1.0     0.052008     0.036940     0.951653  Biso 1.000000     O
    O   1.0     0.159873     0.539942     0.355254  Biso 1.000000     O
    O   1.0     0.030338     0.529061     0.951650  Biso 1.000000     O
    O   1.0     0.639520     0.047821     0.355257  Biso 1.000000     O
    O   1.0     0.509981     0.036941     0.951653  Biso 1.000000     O
    O   1.0     0.617850     0.539942     0.355254  Biso 1.000000     O
    O   1.0     0.488308     0.529062     0.951651  Biso 1.000000     O
    O   1.0     0.172506     0.091088     0.248561  Biso 1.000000     O
    O   1.0     0.042959     0.080207     0.844960  Biso 1.000000     O
    O   1.0     0.150823     0.583207     0.248561  Biso 1.000000     O
    O   1.0     0.021290     0.572327     0.844957  Biso 1.000000     O
    O   1.0     0.630471     0.091088     0.248564  Biso 1.000000     O
    O   1.0     0.500933     0.080208     0.844960  Biso 1.000000     O
    O   1.0     0.608801     0.583208     0.248561  Biso 1.000000     O
    O   1.0     0.479257     0.572327     0.844959  Biso 1.000000     O
    O   1.0    -0.004741     0.437326     0.460814  Biso 1.000000     O
    O   1.0    -0.134277     0.426445     0.000000  Biso 1.000000     O
    O   1.0    -0.026413     0.929440     0.460817  Biso 1.000000     O
    O   1.0    -0.155952     0.918560     0.000000  Biso 1.000000     O
    O   1.0     0.453237     0.437324     0.460817  Biso 1.000000     O
    O   1.0     0.323697     0.426446     0.000000  Biso 1.000000     O
    O   1.0     0.431562     0.929439     0.460820  Biso 1.000000     O
    O   1.0     0.302024     0.918558     0.000000  Biso 1.000000     O
    O   1.0     0.089011    -0.024458     0.511043  Biso 1.000000     O
    O   1.0    -0.040523    -0.035345     0.000000  Biso 1.000000     O
    O   1.0     0.067331     0.467674     0.511033  Biso 1.000000     O
    O   1.0    -0.062202     0.456787     0.000000  Biso 1.000000     O
    O   1.0     0.546991    -0.024464     0.511046  Biso 1.000000     O
    O   1.0     0.417453    -0.035347     0.000000  Biso 1.000000     O
    O   1.0     0.525312     0.467667     0.511038  Biso 1.000000     O
    O   1.0     0.395774     0.456787     0.000000  Biso 1.000000     O
    O   1.0     0.252385     0.388813     0.458351  Biso 1.000000     O
    O   1.0     0.122848     0.377930     0.000000  Biso 1.000000     O
    O   1.0     0.230713     0.880923     0.458354  Biso 1.000000     O
    O   1.0     0.101176     0.870040     0.000000  Biso 1.000000     O
    O   1.0     0.710362     0.388810     0.458352  Biso 1.000000     O
    O   1.0     0.580823     0.377927     0.000000  Biso 1.000000     O
    O   1.0     0.688690     0.880919     0.458352  Biso 1.000000     O
    O   1.0     0.559149     0.870040     0.000000  Biso 1.000000     O
    O   1.0     0.153261     0.317080     0.504051  Biso 1.000000     O
    O   1.0     0.023725     0.306196     0.000000  Biso 1.000000     O
    O   1.0     0.131594     0.809187     0.504046  Biso 1.000000     O
    O   1.0     0.002059     0.798301     0.000000  Biso 1.000000     O
    O   1.0     0.611238     0.317077     0.504052  Biso 1.000000     O
    O   1.0     0.481701     0.306193     0.000000  Biso 1.000000     O
    O   1.0     0.589571     0.809181     0.504046  Biso 1.000000     O
    O   1.0     0.460032     0.798301     0.000000  Biso 1.000000     O
    Y   1.0     0.173534     0.051095     0.172399  Biso 1.000000     Y
    Y   1.0     0.043989     0.040213     0.768797  Biso 1.000000     Y
    Y   1.0     0.151859     0.543206     0.172402  Biso 1.000000     Y
    Y   1.0     0.022317     0.532326     0.768800  Biso 1.000000     Y
    Y   1.0     0.631504     0.051095     0.172400  Biso 1.000000     Y
    Y   1.0     0.501959     0.040218     0.768796  Biso 1.000000     Y
    Y   1.0     0.609832     0.543208     0.172403  Biso 1.000000     Y
    Y   1.0     0.480286     0.532329     0.768800  Biso 1.000000     Y
    Y   1.0     0.133268     0.430112     0.423994  Biso 1.000000     Y
    Y   1.0     0.003732     0.419231     0.000000  Biso 1.000000     Y
    Y   1.0     0.111597     0.922225     0.423997  Biso 1.000000     Y
    Y   1.0    -0.017942     0.911341     0.000000  Biso 1.000000     Y
    Y   1.0     0.591246     0.430111     0.423995  Biso 1.000000     Y
    Y   1.0     0.461707     0.419230     0.000000  Biso 1.000000     Y
    Y   1.0     0.569572     0.922221     0.423998  Biso 1.000000     Y
    Y   1.0     0.440033     0.911342     0.000000  Biso 1.000000     Y
