#======================================================================

# CRYSTAL DATA

#----------------------------------------------------------------------

data_VESTA_phase_1


_pd_phase_name                         MOF
_cell_length_a                         11.51500
_cell_length_b                         13.01300
_cell_length_c                         21.48200
_cell_angle_alpha                      93.25300
_cell_angle_beta                       90.07900
_cell_angle_gamma                      102.64800
_symmetry_space_group_name_H-M         "P 1"
_symmetry_Int_Tables_number            1

loop_
_symmetry_equiv_pos_as_xyz
   "x, y, z"

loop_
   _atom_site_label
   _atom_site_occupancy
   _atom_site_fract_x
   _atom_site_fract_y
   _atom_site_fract_z
   _atom_site_adp_type
   _atom_site_B_iso_or_equiv
   _atom_site_type_symbol
    H   1.0     0.307635     0.912119     0.618663  Biso 1.000000     H
    H   1.0     0.807620     0.912119     0.618663  Biso 1.000000     H
    H   1.0     0.385480     0.789120     0.546083  Biso 1.000000     H
    H   1.0     0.885466     0.789120     0.546083  Biso 1.000000     H
    H   1.0     0.134732     0.761184     0.692439  Biso 1.000000     H
    H   1.0     0.634718     0.761185     0.692439  Biso 1.000000     H
    H   1.0     0.044097     0.880929     0.759277  Biso 1.000000     H
    H   1.0     0.544083     0.880929     0.759277  Biso 1.000000     H
    H   1.0     0.023889     0.681617     0.522463  Biso 1.000000     H
    H   1.0     0.523874     0.681617     0.522464  Biso 1.000000     H
    H   1.0     0.186258     0.646767     0.629679  Biso 1.000000     H
    H   1.0     0.686244     0.646767     0.629679  Biso 1.000000     H
    H   1.0     0.092441     0.581166     0.457523  Biso 1.000000     H
    H   1.0     0.592426     0.581166     0.457523  Biso 1.000000     H
    H   1.0     0.316095     0.535540     0.610481  Biso 1.000000     H
    H   1.0     0.816081     0.535540     0.610481  Biso 1.000000     H
    H   1.0     0.323170     0.242129     0.584853  Biso 1.000000     H
    H   1.0     0.823157     0.242134     0.584853  Biso 1.000000     H
    H   1.0     0.181720     0.177058     0.614008  Biso 1.000000     H
    H   1.0     0.681701     0.177061     0.614008  Biso 1.000000     H
    H   1.0     0.073624     0.014821     0.563428  Biso 1.000000     H
    H   1.0     0.573609     0.014822     0.563427  Biso 1.000000     H
    H   1.0     0.441862     0.127655     0.520119  Biso 1.000000     H
    H   1.0     0.941847     0.127656     0.520119  Biso 1.000000     H
    H   1.0     0.352658     0.089282     0.880560  Biso 1.000000     H
    H   1.0     0.852644     0.089282     0.880560  Biso 1.000000     H
    H   1.0    -0.007894     0.211159     0.953477  Biso 1.000000     H
    H   1.0     0.492092     0.211160     0.953477  Biso 1.000000     H
    H   1.0     0.254503     0.239528     0.807184  Biso 1.000000     H
    H   1.0     0.754489     0.239528     0.807184  Biso 1.000000     H
    H   1.0     0.103978     0.120989     0.740005  Biso 1.000000     H
    H   1.0     0.603964     0.120988     0.740005  Biso 1.000000     H
    H   1.0     0.184059     0.317997     0.977400  Biso 1.000000     H
    H   1.0     0.684045     0.317997     0.977400  Biso 1.000000     H
    H   1.0     0.363004     0.353769     0.870172  Biso 1.000000     H
    H   1.0     0.862990     0.353769     0.870172  Biso 1.000000     H
    H   1.0     0.302708     0.418219     0.042498  Biso 1.000000     H
    H   1.0     0.802694     0.418220     0.042498  Biso 1.000000     H
    H   1.0     0.047849     0.465058     0.889464  Biso 1.000000     H
    H   1.0     0.547835     0.465058     0.889464  Biso 1.000000     H
    H   1.0     0.204510     0.759839     0.913253  Biso 1.000000     H
    H   1.0     0.704494     0.759840     0.913252  Biso 1.000000     H
    H   1.0     0.094904     0.825182     0.884629  Biso 1.000000     H
    H   1.0     0.594892     0.825183     0.884629  Biso 1.000000     H
    H   1.0     0.066577     0.986340     0.936283  Biso 1.000000     H
    H   1.0     0.566562     0.986341     0.936283  Biso 1.000000     H
    H   1.0     0.379185     0.873090     0.979040  Biso 1.000000     H
    H   1.0     0.879172     0.873090     0.979039  Biso 1.000000     H
    H   1.0     0.192356     0.087893     0.381353  Biso 1.000000     H
    H   1.0     0.692342     0.087893     0.381353  Biso 1.000000     H
    H   1.0     0.114510     0.210893     0.453933  Biso 1.000000     H
    H   1.0     0.614496     0.210893     0.453933  Biso 1.000000     H
    H   1.0     0.365259     0.238828     0.307577  Biso 1.000000     H
    H   1.0     0.865244     0.238828     0.307577  Biso 1.000000     H
    H   1.0     0.455893     0.119084     0.240739  Biso 1.000000     H
    H   1.0     0.955879     0.119084     0.240739  Biso 1.000000     H
    H   1.0     0.476102     0.318395     0.477553  Biso 1.000000     H
    H   1.0     0.976088     0.318395     0.477553  Biso 1.000000     H
    H   1.0     0.313732     0.353246     0.370337  Biso 1.000000     H
    H   1.0     0.813718     0.353246     0.370337  Biso 1.000000     H
    H   1.0     0.407550     0.418846     0.542493  Biso 1.000000     H
    H   1.0     0.907536     0.418846     0.542493  Biso 1.000000     H
    H   1.0     0.183896     0.464473     0.389535  Biso 1.000000     H
    H   1.0     0.683881     0.464473     0.389535  Biso 1.000000     H
    H   1.0     0.176820     0.757882     0.415163  Biso 1.000000     H
    H   1.0     0.676803     0.757877     0.415163  Biso 1.000000     H
    H   1.0     0.318271     0.822956     0.386007  Biso 1.000000     H
    H   1.0     0.818262     0.822954     0.386007  Biso 1.000000     H
    H   1.0     0.426366     0.985192     0.436588  Biso 1.000000     H
    H   1.0     0.926350     0.985191     0.436590  Biso 1.000000     H
    H   1.0     0.058130     0.872359     0.479897  Biso 1.000000     H
    H   1.0     0.558118     0.872359     0.479898  Biso 1.000000     H
    H   1.0     0.147332     0.910731     0.119456  Biso 1.000000     H
    H   1.0     0.647318     0.910731     0.119456  Biso 1.000000     H
    H   1.0     0.507885     0.788853     0.046539  Biso 1.000000     H
    H   1.0     0.000000     0.788853     0.046539  Biso 1.000000     H
    H   1.0     0.245488     0.760485     0.192832  Biso 1.000000     H
    H   1.0     0.745473     0.760485     0.192832  Biso 1.000000     H
    H   1.0     0.396012     0.879025     0.260011  Biso 1.000000     H
    H   1.0     0.895998     0.879025     0.260011  Biso 1.000000     H
    H   1.0     0.315931     0.682016     0.022616  Biso 1.000000     H
    H   1.0     0.815917     0.682016     0.022616  Biso 1.000000     H
    H   1.0     0.136987     0.646244     0.129845  Biso 1.000000     H
    H   1.0     0.636972     0.646243     0.129845  Biso 1.000000     H
    H   1.0     0.197282     0.581793     0.957518  Biso 1.000000     H
    H   1.0     0.697268     0.581793     0.957518  Biso 1.000000     H
    H   1.0     0.452141     0.534955     0.110552  Biso 1.000000     H
    H   1.0     0.952127     0.534955     0.110552  Biso 1.000000     H
    H   1.0     0.295482     0.240174     0.086763  Biso 1.000000     H
    H   1.0     0.795468     0.240172     0.086764  Biso 1.000000     H
    H   1.0     0.405088     0.174831     0.115387  Biso 1.000000     H
    H   1.0     0.905070     0.174830     0.115387  Biso 1.000000     H
    H   1.0     0.433416     0.013673     0.063733  Biso 1.000000     H
    H   1.0     0.933401     0.013672     0.063734  Biso 1.000000     H
    H   1.0     0.120806     0.126924     0.020977  Biso 1.000000     H
    H   1.0     0.620790     0.126923     0.020977  Biso 1.000000     H
    C   1.0     0.379090     0.875548     0.633173  Biso 1.000000     C
    C   1.0     0.879076     0.875548     0.633173  Biso 1.000000     C
    C   1.0     0.423525     0.806990     0.592951  Biso 1.000000     C
    C   1.0     0.923510     0.806990     0.592951  Biso 1.000000     C
    C   1.0     0.017189     0.761843     0.612467  Biso 1.000000     C
    C   1.0     0.517174     0.761843     0.612467  Biso 1.000000     C
    C   1.0     0.060998     0.790464     0.673728  Biso 1.000000     C
    C   1.0     0.560984     0.790465     0.673728  Biso 1.000000     C
    C   1.0     0.011398     0.858518     0.711764  Biso 1.000000     C
    C   1.0     0.511383     0.858518     0.711764  Biso 1.000000     C
    C   1.0     0.063449     0.690984     0.569243  Biso 1.000000     C
    C   1.0     0.563435     0.690984     0.569243  Biso 1.000000     C
    C   1.0     0.148185     0.637598     0.582509  Biso 1.000000     C
    C   1.0     0.648171     0.637598     0.582509  Biso 1.000000     C
    C   1.0     0.197167     0.567943     0.539807  Biso 1.000000     C
    C   1.0     0.697152     0.567943     0.539807  Biso 1.000000     C
    C   1.0     0.161702     0.546404     0.476624  Biso 1.000000     C
    C   1.0     0.661687     0.546404     0.476624  Biso 1.000000     C
    C   1.0     0.286559     0.519537     0.561923  Biso 1.000000     C
    C   1.0     0.786545     0.519537     0.561923  Biso 1.000000     C
    C   1.0     0.334685     0.131413     0.654045  Biso 1.000000     C
    C   1.0     0.834672     0.131395     0.654037  Biso 1.000000     C
    C   1.0     0.270034     0.166781     0.599395  Biso 1.000000     C
    C   1.0     0.770017     0.166788     0.599397  Biso 1.000000     C
    C   1.0     0.151063     0.008661     0.535500  Biso 1.000000     C
    C   1.0     0.651047     0.008671     0.535496  Biso 1.000000     C
    C   1.0     0.258343     0.082642     0.546844  Biso 1.000000     C
    C   1.0     0.758337     0.082633     0.546854  Biso 1.000000     C
    C   1.0     0.357043     0.072268     0.510824  Biso 1.000000     C
    C   1.0     0.857026     0.072274     0.510819  Biso 1.000000     C
    C   1.0     0.442241     0.125653     0.866114  Biso 1.000000     C
    C   1.0     0.942226     0.125653     0.866114  Biso 1.000000     C
    C   1.0     0.021000     0.193613     0.906544  Biso 1.000000     C
    C   1.0     0.520986     0.193614     0.906544  Biso 1.000000     C
    C   1.0     0.137033     0.238600     0.887169  Biso 1.000000     C
    C   1.0     0.637020     0.238600     0.887169  Biso 1.000000     C
    C   1.0     0.166277     0.210411     0.825826  Biso 1.000000     C
    C   1.0     0.666263     0.210411     0.825826  Biso 1.000000     C
    C   1.0     0.082576     0.142947     0.787590  Biso 1.000000     C
    C   1.0     0.582562     0.142948     0.787590  Biso 1.000000     C
    C   1.0     0.218706     0.308988     0.930577  Biso 1.000000     C
    C   1.0     0.718692     0.308988     0.930577  Biso 1.000000     C
    C   1.0     0.329750     0.362563     0.917383  Biso 1.000000     C
    C   1.0     0.829736     0.362563     0.917383  Biso 1.000000     C
    C   1.0     0.413401     0.432064     0.960171  Biso 1.000000     C
    C   1.0     0.913387     0.432064     0.960171  Biso 1.000000     C
    C   1.0     0.388979     0.453260     0.023388  Biso 1.000000     C
    C   1.0     0.888965     0.453260     0.023389  Biso 1.000000     C
    C   1.0     0.026529     0.480816     0.938059  Biso 1.000000     C
    C   1.0     0.526514     0.480816     0.938059  Biso 1.000000     C
    C   1.0     0.270246     0.871989     0.844855  Biso 1.000000     C
    C   1.0     0.770227     0.871984     0.844853  Biso 1.000000     C
    C   1.0     0.188349     0.835448     0.899290  Biso 1.000000     C
    C   1.0     0.688336     0.835452     0.899292  Biso 1.000000     C
    C   1.0     0.146936     0.991987     0.964345  Biso 1.000000     C
    C   1.0     0.646920     0.991988     0.964346  Biso 1.000000     C
    C   1.0     0.217946     0.918486     0.952473  Biso 1.000000     C
    C   1.0     0.717929     0.918486     0.952475  Biso 1.000000     C
    C   1.0     0.321563     0.928143     0.988715  Biso 1.000000     C
    C   1.0     0.821548     0.928141     0.988715  Biso 1.000000     C
    C   1.0     0.120901     0.124465     0.366843  Biso 1.000000     C
    C   1.0     0.620887     0.124465     0.366843  Biso 1.000000     C
    C   1.0     0.076466     0.193023     0.407065  Biso 1.000000     C
    C   1.0     0.576452     0.193023     0.407065  Biso 1.000000     C
    C   1.0     0.482802     0.238170     0.387549  Biso 1.000000     C
    C   1.0     0.982788     0.238170     0.387549  Biso 1.000000     C
    C   1.0     0.438993     0.209548     0.326288  Biso 1.000000     C
    C   1.0     0.938978     0.209548     0.326288  Biso 1.000000     C
    C   1.0     0.488593     0.141495     0.288252  Biso 1.000000     C
    C   1.0     0.988579     0.141495     0.288252  Biso 1.000000     C
    C   1.0     0.436542     0.309029     0.430773  Biso 1.000000     C
    C   1.0     0.936527     0.309029     0.430773  Biso 1.000000     C
    C   1.0     0.351805     0.362414     0.417507  Biso 1.000000     C
    C   1.0     0.851791     0.362414     0.417507  Biso 1.000000     C
    C   1.0     0.302824     0.432070     0.460210  Biso 1.000000     C
    C   1.0     0.802810     0.432070     0.460210  Biso 1.000000     C
    C   1.0     0.338289     0.453608     0.523392  Biso 1.000000     C
    C   1.0     0.838275     0.453608     0.523392  Biso 1.000000     C
    C   1.0     0.213431     0.480476     0.438093  Biso 1.000000     C
    C   1.0     0.713417     0.480476     0.438093  Biso 1.000000     C
    C   1.0     0.165306     0.868602     0.345972  Biso 1.000000     C
    C   1.0     0.665291     0.868621     0.345982  Biso 1.000000     C
    C   1.0     0.229957     0.833230     0.400621  Biso 1.000000     C
    C   1.0     0.729946     0.833222     0.400620  Biso 1.000000     C
    C   1.0     0.348927     0.991352     0.464517  Biso 1.000000     C
    C   1.0     0.848913     0.991343     0.464522  Biso 1.000000     C
    C   1.0     0.241649     0.917370     0.453172  Biso 1.000000     C
    C   1.0     0.741626     0.917378     0.453162  Biso 1.000000     C
    C   1.0     0.142949     0.927746     0.489192  Biso 1.000000     C
    C   1.0     0.642939     0.927741     0.489198  Biso 1.000000     C
    C   1.0     0.057750     0.874360     0.133902  Biso 1.000000     C
    C   1.0     0.557736     0.874360     0.133902  Biso 1.000000     C
    C   1.0     0.478991     0.806399     0.093472  Biso 1.000000     C
    C   1.0     0.978976     0.806399     0.093472  Biso 1.000000     C
    C   1.0     0.362957     0.761413     0.112847  Biso 1.000000     C
    C   1.0     0.862942     0.761413     0.112847  Biso 1.000000     C
    C   1.0     0.333714     0.789602     0.174190  Biso 1.000000     C
    C   1.0     0.833699     0.789602     0.174190  Biso 1.000000     C
    C   1.0     0.417415     0.857066     0.212426  Biso 1.000000     C
    C   1.0     0.917400     0.857065     0.212426  Biso 1.000000     C
    C   1.0     0.281285     0.691025     0.069439  Biso 1.000000     C
    C   1.0     0.781270     0.691025     0.069439  Biso 1.000000     C
    C   1.0     0.170241     0.637450     0.082633  Biso 1.000000     C
    C   1.0     0.670226     0.637449     0.082633  Biso 1.000000     C
    C   1.0     0.086589     0.567949     0.039845  Biso 1.000000     C
    C   1.0     0.586575     0.567949     0.039845  Biso 1.000000     C
    C   1.0     0.111011     0.546753     0.976628  Biso 1.000000     C
    C   1.0     0.610997     0.546753     0.976628  Biso 1.000000     C
    C   1.0     0.473462     0.519197     0.061957  Biso 1.000000     C
    C   1.0     0.973448     0.519197     0.061957  Biso 1.000000     C
    C   1.0     0.229745     0.128024     0.155162  Biso 1.000000     C
    C   1.0     0.729735     0.128030     0.155164  Biso 1.000000     C
    C   1.0     0.311642     0.164564     0.100726  Biso 1.000000     C
    C   1.0     0.811625     0.164560     0.100724  Biso 1.000000     C
    C   1.0     0.353056     0.008026     0.035671  Biso 1.000000     C
    C   1.0     0.853043     0.008025     0.035671  Biso 1.000000     C
    C   1.0     0.282045     0.081527     0.047544  Biso 1.000000     C
    C   1.0     0.782033     0.081526     0.047541  Biso 1.000000     C
    C   1.0     0.178428     0.071872     0.011301  Biso 1.000000     C
    C   1.0     0.678413     0.071872     0.011301  Biso 1.000000     C
    N   1.0     0.421364     0.900804     0.692099  Biso 1.000000     N
    N   1.0     0.921350     0.900804     0.692099  Biso 1.000000     N
    N   1.0     0.471576     0.100775     0.807093  Biso 1.000000     N
    N   1.0     0.971561     0.100775     0.807093  Biso 1.000000     N
    N   1.0     0.078626     0.099209     0.307917  Biso 1.000000     N
    N   1.0     0.578612     0.099209     0.307917  Biso 1.000000     N
    N   1.0     0.028414     0.899238     0.192923  Biso 1.000000     N
    N   1.0     0.528401     0.899238     0.192923  Biso 1.000000     N
    O   1.0     0.264071     0.070754     0.691033  Biso 1.000000     O
    O   1.0     0.764057     0.070758     0.691035  Biso 1.000000     O
    O   1.0     0.445132     0.155362     0.658705  Biso 1.000000     O
    O   1.0     0.945118     0.155363     0.658706  Biso 1.000000     O
    O   1.0     0.229122     0.932665     0.808007  Biso 1.000000     O
    O   1.0     0.729107     0.932666     0.808008  Biso 1.000000     O
    O   1.0     0.369287     0.848895     0.840115  Biso 1.000000     O
    O   1.0     0.869271     0.848894     0.840115  Biso 1.000000     O
    O   1.0     0.235919     0.929259     0.308983  Biso 1.000000     O
    O   1.0     0.735904     0.929254     0.308981  Biso 1.000000     O
    O   1.0     0.054859     0.844650     0.341311  Biso 1.000000     O
    O   1.0     0.554846     0.844648     0.341308  Biso 1.000000     O
    O   1.0     0.270870     0.067348     0.192009  Biso 1.000000     O
    O   1.0     0.770855     0.067347     0.192008  Biso 1.000000     O
    O   1.0     0.130704     0.151118     0.159901  Biso 1.000000     O
    O   1.0     0.630691     0.151119     0.159901  Biso 1.000000     O
   Zn   1.0     0.350268     0.000792     0.749434  Biso 1.000000    Zn
   Zn   1.0     0.850253     0.000791     0.749433  Biso 1.000000    Zn
   Zn   1.0     0.149721    -0.000803     0.250582  Biso 1.000000    Zn
   Zn   1.0     0.649707    -0.000802     0.250583  Biso 1.000000    Zn
