#======================================================================

# CRYSTAL DATA

#----------------------------------------------------------------------

data_VESTA_phase_1


_pd_phase_name                         MOF
_cell_length_a                         17.50000
_cell_length_b                         12.59800
_cell_length_c                         12.59700
_cell_angle_alpha                      65.35300
_cell_angle_beta                       76.63000
_cell_angle_gamma                      103.32000
_symmetry_space_group_name_H-M         "P 1"
_symmetry_Int_Tables_number            1

loop_
_symmetry_equiv_pos_as_xyz
   "x, y, z"

loop_
   _atom_site_label
   _atom_site_occupancy
   _atom_site_fract_x
   _atom_site_fract_y
   _atom_site_fract_z
   _atom_site_adp_type
   _atom_site_B_iso_or_equiv
   _atom_site_type_symbol
    H   1.0     0.480754     0.903669     0.815239  Biso 1.000000     H
    H   1.0     0.980754     0.903669     0.815239  Biso 1.000000     H
    H   1.0     0.382371     0.782181     0.865564  Biso 1.000000     H
    H   1.0     0.882370     0.782181     0.865565  Biso 1.000000     H
    H   1.0     0.482466     0.004776     0.596456  Biso 1.000000     H
    H   1.0     0.982465     0.004776     0.596457  Biso 1.000000     H
    H   1.0     0.389287     0.878908     0.640650  Biso 1.000000     H
    H   1.0     0.889286     0.878909     0.640651  Biso 1.000000     H
    H   1.0     0.313031     0.937124     0.794873  Biso 1.000000     H
    H   1.0     0.813029     0.937121     0.794876  Biso 1.000000     H
    H   1.0     0.406077     0.075486     0.726769  Biso 1.000000     H
    H   1.0     0.906076     0.075486     0.726771  Biso 1.000000     H
    H   1.0     0.387924     0.813593     0.283068  Biso 1.000000     H
    H   1.0     0.887921     0.813592     0.283073  Biso 1.000000     H
    H   1.0     0.314901     0.864901     0.353857  Biso 1.000000     H
    H   1.0     0.814903     0.864893     0.353863  Biso 1.000000     H
    H   1.0     0.280182     0.595524     0.399247  Biso 1.000000     H
    H   1.0     0.780181     0.595524     0.399247  Biso 1.000000     H
    H   1.0     0.209268     0.640280     0.481041  Biso 1.000000     H
    H   1.0     0.709268     0.640280     0.481042  Biso 1.000000     H
    H   1.0     0.210200     0.794786     0.269314  Biso 1.000000     H
    H   1.0     0.710201     0.794793     0.269313  Biso 1.000000     H
    H   1.0     0.269005     0.726104     0.198881  Biso 1.000000     H
    H   1.0     0.769007     0.726107     0.198877  Biso 1.000000     H
    H   1.0     0.030288     0.283163     0.901928  Biso 1.000000     H
    H   1.0     0.530288     0.283162     0.901929  Biso 1.000000     H
    H   1.0     0.492529     0.354024     0.780315  Biso 1.000000     H
    H   1.0     0.992529     0.354024     0.780315  Biso 1.000000     H
    H   1.0     0.480318     0.399432     0.004650  Biso 1.000000     H
    H   1.0     0.980317     0.399431     0.004649  Biso 1.000000     H
    H   1.0     0.449861     0.480859     0.878828  Biso 1.000000     H
    H   1.0     0.949860     0.480858     0.878828  Biso 1.000000     H
    H   1.0     0.345737     0.268894     0.934999  Biso 1.000000     H
    H   1.0     0.845737     0.268893     0.934994  Biso 1.000000     H
    H   1.0     0.369636     0.198869     0.073554  Biso 1.000000     H
    H   1.0     0.869636     0.198867     0.073554  Biso 1.000000     H
    H   1.0     0.019252     0.096302     0.184758  Biso 1.000000     H
    H   1.0     0.519251     0.096300     0.184758  Biso 1.000000     H
    H   1.0     0.117638     0.217792     0.134430  Biso 1.000000     H
    H   1.0     0.617640     0.217793     0.134427  Biso 1.000000     H
    H   1.0     0.017542     0.995197     0.403541  Biso 1.000000     H
    H   1.0     0.517541     0.995197     0.403541  Biso 1.000000     H
    H   1.0     0.110720     0.121066     0.359346  Biso 1.000000     H
    H   1.0     0.610720     0.121065     0.359346  Biso 1.000000     H
    H   1.0     0.186977     0.062850     0.205126  Biso 1.000000     H
    H   1.0     0.686974     0.062845     0.205131  Biso 1.000000     H
    H   1.0     0.093931     0.924487     0.273228  Biso 1.000000     H
    H   1.0     0.593931     0.924488     0.273230  Biso 1.000000     H
    H   1.0     0.112083     0.186379     0.716930  Biso 1.000000     H
    H   1.0     0.612081     0.186377     0.716934  Biso 1.000000     H
    H   1.0     0.185106     0.135072     0.646139  Biso 1.000000     H
    H   1.0     0.685108     0.135065     0.646144  Biso 1.000000     H
    H   1.0     0.219826     0.404448     0.600752  Biso 1.000000     H
    H   1.0     0.719825     0.404448     0.600752  Biso 1.000000     H
    H   1.0     0.290739     0.359692     0.518957  Biso 1.000000     H
    H   1.0     0.790738     0.359692     0.518958  Biso 1.000000     H
    H   1.0     0.289807     0.205186     0.730682  Biso 1.000000     H
    H   1.0     0.789808     0.205192     0.730681  Biso 1.000000     H
    H   1.0     0.231002     0.273866     0.801117  Biso 1.000000     H
    H   1.0     0.731004     0.273868     0.801114  Biso 1.000000     H
    H   1.0     0.469719     0.716813     0.098068  Biso 1.000000     H
    H   1.0     0.969718     0.716813     0.098069  Biso 1.000000     H
    H   1.0     0.007480     0.645950     0.219684  Biso 1.000000     H
    H   1.0     0.507480     0.645950     0.219684  Biso 1.000000     H
    H   1.0     0.019688     0.600541     0.995349  Biso 1.000000     H
    H   1.0     0.519686     0.600541     0.995348  Biso 1.000000     H
    H   1.0     0.050146     0.519115     0.121169  Biso 1.000000     H
    H   1.0     0.550146     0.519114     0.121169  Biso 1.000000     H
    H   1.0     0.154270     0.731081     0.064995  Biso 1.000000     H
    H   1.0     0.654269     0.731080     0.064991  Biso 1.000000     H
    H   1.0     0.130370     0.801103     0.926442  Biso 1.000000     H
    H   1.0     0.630369     0.801101     0.926443  Biso 1.000000     H
    C   1.0     0.488974     0.775581     0.745576  Biso 1.000000     C
    C   1.0     0.988974     0.775585     0.745572  Biso 1.000000     C
    C   1.0     0.441879     0.848650     0.785196  Biso 1.000000     C
    C   1.0     0.941878     0.848650     0.785197  Biso 1.000000     C
    C   1.0     0.422725     0.935411     0.674538  Biso 1.000000     C
    C   1.0     0.922723     0.935413     0.674538  Biso 1.000000     C
    C   1.0     0.369110     0.005329     0.709617  Biso 1.000000     C
    C   1.0     0.869107     0.005329     0.709621  Biso 1.000000     C
    C   1.0     0.339157     0.069862     0.605329  Biso 1.000000     C
    C   1.0     0.839161     0.069860     0.605322  Biso 1.000000     C
    C   1.0     0.361156     0.744497     0.480349  Biso 1.000000     C
    C   1.0     0.861166     0.744525     0.480340  Biso 1.000000     C
    C   1.0     0.334036     0.784130     0.367681  Biso 1.000000     C
    C   1.0     0.834029     0.784114     0.367687  Biso 1.000000     C
    C   1.0     0.259556     0.673867     0.390903  Biso 1.000000     C
    C   1.0     0.759548     0.673861     0.390899  Biso 1.000000     C
    C   1.0     0.223559     0.709278     0.286016  Biso 1.000000     C
    C   1.0     0.723556     0.709284     0.286006  Biso 1.000000     C
    C   1.0     0.141503     0.605437     0.325097  Biso 1.000000     C
    C   1.0     0.641504     0.605426     0.325109  Biso 1.000000     C
    C   1.0     0.101675     0.480426     0.775165  Biso 1.000000     C
    C   1.0     0.601675     0.480428     0.775165  Biso 1.000000     C
    C   1.0     0.018506     0.367791     0.847386  Biso 1.000000     C
    C   1.0     0.518508     0.367790     0.847384  Biso 1.000000     C
    C   1.0     0.455486     0.390872     0.934717  Biso 1.000000     C
    C   1.0     0.955481     0.390868     0.934720  Biso 1.000000     C
    C   1.0     0.367387     0.285843     0.003831  Biso 1.000000     C
    C   1.0     0.867382     0.285837     0.003832  Biso 1.000000     C
    C   1.0     0.304570     0.324743     0.068873  Biso 1.000000     C
    C   1.0     0.804577     0.324755     0.068870  Biso 1.000000     C
    C   1.0     0.011031     0.224383     0.254432  Biso 1.000000     C
    C   1.0     0.511029     0.224376     0.254443  Biso 1.000000     C
    C   1.0     0.058129     0.151325     0.214796  Biso 1.000000     C
    C   1.0     0.558128     0.151330     0.214789  Biso 1.000000     C
    C   1.0     0.077282     0.064564     0.325458  Biso 1.000000     C
    C   1.0     0.577278     0.064569     0.325455  Biso 1.000000     C
    C   1.0     0.130897     0.994646     0.290381  Biso 1.000000     C
    C   1.0     0.630893     0.994648     0.290386  Biso 1.000000     C
    C   1.0     0.160848     0.930111     0.394672  Biso 1.000000     C
    C   1.0     0.660854     0.930109     0.394662  Biso 1.000000     C
    C   1.0     0.138849     0.255472     0.519650  Biso 1.000000     C
    C   1.0     0.638859     0.255499     0.519641  Biso 1.000000     C
    C   1.0     0.165971     0.215844     0.632316  Biso 1.000000     C
    C   1.0     0.665965     0.215829     0.632322  Biso 1.000000     C
    C   1.0     0.240451     0.326106     0.609094  Biso 1.000000     C
    C   1.0     0.740444     0.326100     0.609091  Biso 1.000000     C
    C   1.0     0.276448     0.290694     0.713981  Biso 1.000000     C
    C   1.0     0.776446     0.290699     0.713972  Biso 1.000000     C
    C   1.0     0.358504     0.394532     0.674904  Biso 1.000000     C
    C   1.0     0.858504     0.394525     0.674913  Biso 1.000000     C
    C   1.0     0.398333     0.519541     0.224826  Biso 1.000000     C
    C   1.0     0.898333     0.519543     0.224826  Biso 1.000000     C
    C   1.0     0.481496     0.632185     0.152619  Biso 1.000000     C
    C   1.0     0.981497     0.632184     0.152617  Biso 1.000000     C
    C   1.0     0.044519     0.609101     0.065283  Biso 1.000000     C
    C   1.0     0.544514     0.609098     0.065286  Biso 1.000000     C
    C   1.0     0.132617     0.714128     0.996166  Biso 1.000000     C
    C   1.0     0.632613     0.714123     0.996166  Biso 1.000000     C
    C   1.0     0.195438     0.675233     0.931124  Biso 1.000000     C
    C   1.0     0.695444     0.675243     0.931122  Biso 1.000000     C
    O   1.0     0.446097     0.686718     0.732638  Biso 1.000000     O
    O   1.0     0.946096     0.686719     0.732639  Biso 1.000000     O
    O   1.0     0.067390     0.808511     0.723028  Biso 1.000000     O
    O   1.0     0.567390     0.808511     0.723027  Biso 1.000000     O
    O   1.0     0.278382     0.005913     0.591111  Biso 1.000000     O
    O   1.0     0.778382     0.005913     0.591110  Biso 1.000000     O
    O   1.0     0.375757     0.188345     0.529782  Biso 1.000000     O
    O   1.0     0.875756     0.188345     0.529782  Biso 1.000000     O
    O   1.0     0.311806     0.731955     0.581892  Biso 1.000000     O
    O   1.0     0.811805     0.731953     0.581892  Biso 1.000000     O
    O   1.0     0.428245     0.721634     0.470189  Biso 1.000000     O
    O   1.0     0.928245     0.721636     0.470188  Biso 1.000000     O
    O   1.0     0.073770     0.591356     0.403386  Biso 1.000000     O
    O   1.0     0.573769     0.591355     0.403387  Biso 1.000000     O
    O   1.0     0.140208     0.530225     0.281202  Biso 1.000000     O
    O   1.0     0.640208     0.530226     0.281201  Biso 1.000000     O
    O   1.0     0.102975     0.581845     0.686537  Biso 1.000000     O
    O   1.0     0.602975     0.581846     0.686536  Biso 1.000000     O
    O   1.0     0.163551     0.470329     0.808551  Biso 1.000000     O
    O   1.0     0.663551     0.470329     0.808551  Biso 1.000000     O
    O   1.0     0.276378     0.403820     0.004912  Biso 1.000000     O
    O   1.0     0.776377     0.403820     0.004912  Biso 1.000000     O
    O   1.0     0.280651     0.279877     0.187918  Biso 1.000000     O
    O   1.0     0.780650     0.279877     0.187918  Biso 1.000000     O
    O   1.0     0.053910     0.313254     0.267358  Biso 1.000000     O
    O   1.0     0.553910     0.313255     0.267357  Biso 1.000000     O
    O   1.0     0.432616     0.191460     0.276972  Biso 1.000000     O
    O   1.0     0.932616     0.191460     0.276971  Biso 1.000000     O
    O   1.0     0.221623     0.994060     0.408890  Biso 1.000000     O
    O   1.0     0.721622     0.994060     0.408890  Biso 1.000000     O
    O   1.0     0.124250     0.811628     0.470216  Biso 1.000000     O
    O   1.0     0.624249     0.811628     0.470217  Biso 1.000000     O
    O   1.0     0.188202     0.268020     0.418104  Biso 1.000000     O
    O   1.0     0.688201     0.268018     0.418104  Biso 1.000000     O
    O   1.0     0.071761     0.278336     0.529810  Biso 1.000000     O
    O   1.0     0.571761     0.278338     0.529809  Biso 1.000000     O
    O   1.0     0.426236     0.408615     0.596612  Biso 1.000000     O
    O   1.0     0.926235     0.408615     0.596612  Biso 1.000000     O
    O   1.0     0.359798     0.469746     0.718796  Biso 1.000000     O
    O   1.0     0.859798     0.469747     0.718794  Biso 1.000000     O
    O   1.0     0.397031     0.418125     0.313462  Biso 1.000000     O
    O   1.0     0.897031     0.418126     0.313461  Biso 1.000000     O
    O   1.0     0.336455     0.529644     0.191445  Biso 1.000000     O
    O   1.0     0.836455     0.529645     0.191445  Biso 1.000000     O
    O   1.0     0.223628     0.596155     0.995086  Biso 1.000000     O
    O   1.0     0.723627     0.596155     0.995086  Biso 1.000000     O
    O   1.0     0.219357     0.720096     0.812079  Biso 1.000000     O
    O   1.0     0.719356     0.720096     0.812079  Biso 1.000000     O
   Ca   1.0     0.006446     0.623478     0.573971  Biso 1.000000    Ca
   Ca   1.0     0.506444     0.623476     0.573971  Biso 1.000000    Ca
   Ca   1.0     0.293494     0.574109     0.803165  Biso 1.000000    Ca
   Ca   1.0     0.793495     0.574111     0.803165  Biso 1.000000    Ca
   Ca   1.0     0.194645     0.803191     0.623997  Biso 1.000000    Ca
   Ca   1.0     0.694646     0.803191     0.623997  Biso 1.000000    Ca
   Ca   1.0     0.493563     0.376495     0.426027  Biso 1.000000    Ca
   Ca   1.0     0.993561     0.376494     0.426026  Biso 1.000000    Ca
   Ca   1.0     0.206512     0.425863     0.196832  Biso 1.000000    Ca
   Ca   1.0     0.706513     0.425865     0.196832  Biso 1.000000    Ca
   Ca   1.0     0.305361     0.196783     0.376001  Biso 1.000000    Ca
   Ca   1.0     0.805362     0.196783     0.376001  Biso 1.000000    Ca
