#======================================================================

# CRYSTAL DATA

#----------------------------------------------------------------------

data_VESTA_phase_1


_pd_phase_name                         MOF
_cell_length_a                         17.73900
_cell_length_b                         17.71900
_cell_length_c                         17.71300
_cell_angle_alpha                      96.74100
_cell_angle_beta                       96.79600
_cell_angle_gamma                      96.63900
_symmetry_space_group_name_H-M         "P 1"
_symmetry_Int_Tables_number            1

loop_
_symmetry_equiv_pos_as_xyz
   "x, y, z"

loop_
   _atom_site_label
   _atom_site_occupancy
   _atom_site_fract_x
   _atom_site_fract_y
   _atom_site_fract_z
   _atom_site_adp_type
   _atom_site_B_iso_or_equiv
   _atom_site_type_symbol
    H   1.0     0.211662     0.478167     0.818605  Biso 1.000000     H
    H   1.0     0.180880     0.611138     0.818117  Biso 1.000000     H
    H   1.0     0.431800     0.565347     0.948866  Biso 1.000000     H
    H   1.0     0.402049     0.698209     0.943468  Biso 1.000000     H
    H   1.0     0.225380     0.386949     0.891514  Biso 1.000000     H
    H   1.0     0.142703     0.305456     0.891571  Biso 1.000000     H
    H   1.0     0.819582     0.210793     0.477485  Biso 1.000000     H
    H   1.0     0.818771     0.179997     0.610471  Biso 1.000000     H
    H   1.0     0.949435     0.430945     0.565355  Biso 1.000000     H
    H   1.0     0.943768     0.401189     0.698205  Biso 1.000000     H
    H   1.0     0.893230     0.224639     0.386556  Biso 1.000000     H
    H   1.0     0.893411     0.142066     0.304896  Biso 1.000000     H
    H   1.0     0.478774     0.822530     0.207614  Biso 1.000000     H
    H   1.0     0.611591     0.822212     0.177023  Biso 1.000000     H
    H   1.0     0.565943     0.949980     0.429398  Biso 1.000000     H
    H   1.0     0.698666     0.944720     0.399771  Biso 1.000000     H
    H   1.0     0.386749     0.893805     0.223081  Biso 1.000000     H
    H   1.0     0.304646     0.890142     0.140491  Biso 1.000000     H
    H   1.0     0.479263     0.208727     0.821701  Biso 1.000000     H
    H   1.0     0.612161     0.178172     0.821075  Biso 1.000000     H
    H   1.0     0.566339     0.430168     0.949583  Biso 1.000000     H
    H   1.0     0.699089     0.400572     0.944041  Biso 1.000000     H
    H   1.0     0.387577     0.223865     0.893420  Biso 1.000000     H
    H   1.0     0.305560     0.141356     0.891024  Biso 1.000000     H
    H   1.0     0.212111     0.817376     0.477653  Biso 1.000000     H
    H   1.0     0.181661     0.817344     0.610716  Biso 1.000000     H
    H   1.0     0.431666     0.948640     0.564591  Biso 1.000000     H
    H   1.0     0.402297     0.943696     0.697579  Biso 1.000000     H
    H   1.0     0.224874     0.890067     0.386092  Biso 1.000000     H
    H   1.0     0.142060     0.891556     0.304505  Biso 1.000000     H
    H   1.0     0.821582     0.478514     0.209188  Biso 1.000000     H
    H   1.0     0.820406     0.611521     0.178648  Biso 1.000000     H
    H   1.0     0.950035     0.566000     0.430419  Biso 1.000000     H
    H   1.0     0.944072     0.698862     0.400814  Biso 1.000000     H
    H   1.0     0.894864     0.387306     0.223934  Biso 1.000000     H
    H   1.0     0.893345     0.305337     0.141233  Biso 1.000000     H
    H   1.0     0.462024     0.460088     0.879294  Biso 1.000000     H
    H   1.0     0.065168     0.065008     0.870463  Biso 1.000000     H
    H   1.0     0.879532     0.461293     0.460197  Biso 1.000000     H
    H   1.0     0.873051     0.064750     0.064240  Biso 1.000000     H
    H   1.0     0.462077     0.879293     0.459314  Biso 1.000000     H
    H   1.0     0.064259     0.870623     0.063812  Biso 1.000000     H
    C   1.0     0.289504     0.662961     0.880751  Biso 1.000000     C
    C   1.0     0.253136     0.526014     0.847613  Biso 1.000000     C
    C   1.0     0.235819     0.600414     0.846332  Biso 1.000000     C
    C   1.0     0.323930     0.511644     0.884221  Biso 1.000000     C
    C   1.0     0.377206     0.574922     0.918740  Biso 1.000000     C
    C   1.0     0.360614     0.649490     0.916639  Biso 1.000000     C
    C   1.0     0.271090     0.742749     0.879578  Biso 1.000000     C
    C   1.0     0.017133     0.206123     0.879953  Biso 1.000000     C
    C   1.0     0.341635     0.432285     0.886662  Biso 1.000000     C
    C   1.0     0.283127     0.372613     0.889354  Biso 1.000000     C
    C   1.0     0.097408     0.187773     0.881693  Biso 1.000000     C
    C   1.0     0.157686     0.247500     0.888193  Biso 1.000000     C
    C   1.0     0.881229     0.288629     0.662589  Biso 1.000000     C
    C   1.0     0.848382     0.252269     0.525505  Biso 1.000000     C
    C   1.0     0.846977     0.234935     0.599884  Biso 1.000000     C
    C   1.0     0.885036     0.323055     0.511383  Biso 1.000000     C
    C   1.0     0.919297     0.376380     0.574812  Biso 1.000000     C
    C   1.0     0.917083     0.359764     0.649342  Biso 1.000000     C
    C   1.0     0.880051     0.270202     0.742346  Biso 1.000000     C
    C   1.0     0.881928     0.016553     0.205404  Biso 1.000000     C
    C   1.0     0.887617     0.340888     0.432115  Biso 1.000000     C
    C   1.0     0.890855     0.282458     0.372361  Biso 1.000000     C
    C   1.0     0.883951     0.096881     0.187128  Biso 1.000000     C
    C   1.0     0.890290     0.157172     0.246998  Biso 1.000000     C
    C   1.0     0.663414     0.883155     0.286592  Biso 1.000000     C
    C   1.0     0.526585     0.850888     0.249545  Biso 1.000000     C
    C   1.0     0.600909     0.849728     0.232304  Biso 1.000000     C
    C   1.0     0.512283     0.886396     0.320873  Biso 1.000000     C
    C   1.0     0.575503     0.920434     0.374510  Biso 1.000000     C
    C   1.0     0.649973     0.918439     0.357990  Biso 1.000000     C
    C   1.0     0.743170     0.881204     0.268737  Biso 1.000000     C
    C   1.0     0.205240     0.879946     0.015218  Biso 1.000000     C
    C   1.0     0.433088     0.887699     0.339042  Biso 1.000000     C
    C   1.0     0.372916     0.890384     0.280874  Biso 1.000000     C
    C   1.0     0.187037     0.881283     0.095589  Biso 1.000000     C
    C   1.0     0.246947     0.887374     0.155800  Biso 1.000000     C
    C   1.0     0.663888     0.287538     0.882283  Biso 1.000000     C
    C   1.0     0.527068     0.250572     0.850110  Biso 1.000000     C
    C   1.0     0.601421     0.233357     0.848765  Biso 1.000000     C
    C   1.0     0.512718     0.321768     0.885880  Biso 1.000000     C
    C   1.0     0.575919     0.375349     0.919904  Biso 1.000000     C
    C   1.0     0.650410     0.358853     0.917740  Biso 1.000000     C
    C   1.0     0.743664     0.269633     0.880426  Biso 1.000000     C
    C   1.0     0.206037     0.016151     0.879876  Biso 1.000000     C
    C   1.0     0.433500     0.339852     0.887601  Biso 1.000000     C
    C   1.0     0.373557     0.281671     0.890378  Biso 1.000000     C
    C   1.0     0.187921     0.096593     0.881521  Biso 1.000000     C
    C   1.0     0.247813     0.156701     0.887972  Biso 1.000000     C
    C   1.0     0.289993     0.880575     0.662480  Biso 1.000000     C
    C   1.0     0.253538     0.846692     0.525461  Biso 1.000000     C
    C   1.0     0.236408     0.845689     0.599934  Biso 1.000000     C
    C   1.0     0.324035     0.883533     0.510970  Biso 1.000000     C
    C   1.0     0.377283     0.918377     0.574244  Biso 1.000000     C
    C   1.0     0.360884     0.916546     0.648898  Biso 1.000000     C
    C   1.0     0.271600     0.879826     0.742318  Biso 1.000000     C
    C   1.0     0.016453     0.880099     0.205108  Biso 1.000000     C
    C   1.0     0.341446     0.885981     0.431520  Biso 1.000000     C
    C   1.0     0.282671     0.888415     0.371806  Biso 1.000000     C
    C   1.0     0.096646     0.881654     0.186702  Biso 1.000000     C
    C   1.0     0.156977     0.887972     0.246536  Biso 1.000000     C
    C   1.0     0.882028     0.663408     0.287858  Biso 1.000000     C
    C   1.0     0.849995     0.526451     0.250957  Biso 1.000000     C
    C   1.0     0.848359     0.600827     0.233765  Biso 1.000000     C
    C   1.0     0.886196     0.512240     0.322050  Biso 1.000000     C
    C   1.0     0.920138     0.575544     0.375656  Biso 1.000000     C
    C   1.0     0.917728     0.650068     0.359158  Biso 1.000000     C
    C   1.0     0.880240     0.743146     0.269696  Biso 1.000000     C
    C   1.0     0.882183     0.205705     0.015847  Biso 1.000000     C
    C   1.0     0.888379     0.432983     0.339975  Biso 1.000000     C
    C   1.0     0.891721     0.373143     0.281673  Biso 1.000000     C
    C   1.0     0.884005     0.187586     0.096235  Biso 1.000000     C
    C   1.0     0.890314     0.247514     0.156460  Biso 1.000000     C
    C   1.0     0.416693     0.415042     0.885318  Biso 1.000000     C
    C   1.0     0.297503     0.296458     0.890399  Biso 1.000000     C
    C   1.0     0.234096     0.233334     0.889568  Biso 1.000000     C
    C   1.0     0.111992     0.111613     0.876735  Biso 1.000000     C
    C   1.0     0.885976     0.416039     0.415085  Biso 1.000000     C
    C   1.0     0.892092     0.297017     0.296285  Biso 1.000000     C
    C   1.0     0.891696     0.233684     0.233036  Biso 1.000000     C
    C   1.0     0.879257     0.111547     0.111015  Biso 1.000000     C
    C   1.0     0.416517     0.885140     0.414257  Biso 1.000000     C
    C   1.0     0.296857     0.889847     0.295646  Biso 1.000000     C
    C   1.0     0.233340     0.889089     0.232455  Biso 1.000000     C
    C   1.0     0.111121     0.876689     0.110506  Biso 1.000000     C
    O   1.0     0.325973     0.797157     0.902707  Biso 1.000000     O
    O   1.0     0.963328     0.150955     0.856685  Biso 1.000000     O
    O   1.0     0.008930     0.275702     0.902225  Biso 1.000000     O
    O   1.0     0.201849     0.750868     0.855708  Biso 1.000000     O
    O   1.0     0.903226     0.325142     0.796836  Biso 1.000000     O
    O   1.0     0.859465     0.962663     0.150036  Biso 1.000000     O
    O   1.0     0.903062     0.008431     0.275287  Biso 1.000000     O
    O   1.0     0.856365     0.200900     0.750368  Biso 1.000000     O
    O   1.0     0.797365     0.903375     0.324163  Biso 1.000000     O
    O   1.0     0.150159     0.857342     0.961068  Biso 1.000000     O
    O   1.0     0.274885     0.901740     0.007303  Biso 1.000000     O
    O   1.0     0.751446     0.857622     0.199411  Biso 1.000000     O
    O   1.0     0.797758     0.324940     0.903009  Biso 1.000000     O
    O   1.0     0.150968     0.962292     0.856544  Biso 1.000000     O
    O   1.0     0.275578     0.007936     0.902154  Biso 1.000000     O
    O   1.0     0.752096     0.200434     0.856528  Biso 1.000000     O
    O   1.0     0.326365     0.903206     0.796905  Biso 1.000000     O
    O   1.0     0.962519     0.856649     0.150006  Biso 1.000000     O
    O   1.0     0.008467     0.902681     0.274691  Biso 1.000000     O
    O   1.0     0.202370     0.856071     0.750276  Biso 1.000000     O
    O   1.0     0.903419     0.797518     0.324754  Biso 1.000000     O
    O   1.0     0.859623     0.150361     0.961935  Biso 1.000000     O
    O   1.0     0.903424     0.275464     0.007679  Biso 1.000000     O
    O   1.0     0.856000     0.751242     0.200461  Biso 1.000000     O
   Cu   1.0     0.305274     0.904094     0.903786  Biso 1.000000    Cu
   Cu   1.0     0.904830     0.304952     0.903850  Biso 1.000000    Cu
   Cu   1.0     0.904537     0.904423     0.304356  Biso 1.000000    Cu
   Cu   1.0     0.855821     0.171146     0.854309  Biso 1.000000    Cu
   Cu   1.0     0.855200     0.854965     0.170460  Biso 1.000000    Cu
   Cu   1.0     0.171827     0.854659     0.853810  Biso 1.000000    Cu
