#======================================================================

# CRYSTAL DATA

#----------------------------------------------------------------------

data_VESTA_phase_1


_pd_phase_name                         MOF
_cell_length_a                         20.01800
_cell_length_b                         13.15400
_cell_length_c                         15.54700
_cell_angle_alpha                      89.99800
_cell_angle_beta                       89.94600
_cell_angle_gamma                      89.97200
_symmetry_space_group_name_H-M         "P 1"
_symmetry_Int_Tables_number            1

loop_
_symmetry_equiv_pos_as_xyz
   "x, y, z"

loop_
   _atom_site_label
   _atom_site_occupancy
   _atom_site_fract_x
   _atom_site_fract_y
   _atom_site_fract_z
   _atom_site_adp_type
   _atom_site_B_iso_or_equiv
   _atom_site_type_symbol
    H   1.0     0.265289     0.974718     0.357178  Biso 1.000000     H
    H   1.0     0.765299     0.974717     0.357177  Biso 1.000000     H
    H   1.0     0.390397     0.041553     0.337848  Biso 1.000000     H
    H   1.0     0.890407     0.041552     0.337848  Biso 1.000000     H
    H   1.0     0.330181     0.777955     0.466782  Biso 1.000000     H
    H   1.0     0.830195     0.777954     0.466783  Biso 1.000000     H
    H   1.0     0.252305     0.862929     0.584887  Biso 1.000000     H
    H   1.0     0.752319     0.862929     0.584889  Biso 1.000000     H
    H   1.0     0.489587     0.027457     0.856289  Biso 1.000000     H
    H   1.0     0.989597     0.027457     0.856289  Biso 1.000000     H
    H   1.0     0.364559     0.960650     0.836631  Biso 1.000000     H
    H   1.0     0.864569     0.960649     0.836632  Biso 1.000000     H
    H   1.0     0.423899     0.225400     0.966840  Biso 1.000000     H
    H   1.0     0.923909     0.225399     0.966839  Biso 1.000000     H
    H   1.0     0.501942     0.141408     0.085026  Biso 1.000000     H
    H   1.0     0.000000     0.141406     0.085025  Biso 1.000000     H
    H   1.0     0.238732     0.475230     0.144355  Biso 1.000000     H
    H   1.0     0.738743     0.475230     0.144357  Biso 1.000000     H
    H   1.0     0.113656     0.541822     0.164866  Biso 1.000000     H
    H   1.0     0.613667     0.541822     0.164866  Biso 1.000000     H
    H   1.0     0.173943     0.276767     0.036651  Biso 1.000000     H
    H   1.0     0.673955     0.276771     0.036654  Biso 1.000000     H
    H   1.0     0.252109     0.361048     0.918678  Biso 1.000000     H
    H   1.0     0.752121     0.361052     0.918680  Biso 1.000000     H
    H   1.0     0.015495     0.526324     0.645145  Biso 1.000000     H
    H   1.0     0.515506     0.526326     0.645148  Biso 1.000000     H
    H   1.0     0.140667     0.459780     0.665206  Biso 1.000000     H
    H   1.0     0.640678     0.459781     0.665209  Biso 1.000000     H
    H   1.0     0.081939     0.724741     0.537349  Biso 1.000000     H
    H   1.0     0.581949     0.724742     0.537348  Biso 1.000000     H
    H   1.0     0.003469     0.641958     0.419092  Biso 1.000000     H
    H   1.0     0.503479     0.641959     0.419092  Biso 1.000000     H
    C   1.0     0.233403     0.111377     0.289722  Biso 1.000000     C
    C   1.0     0.733413     0.111377     0.289721  Biso 1.000000     C
    C   1.0     0.279765     0.044783     0.325072  Biso 1.000000     C
    C   1.0     0.779775     0.044782     0.325071  Biso 1.000000     C
    C   1.0     0.345744     0.079567     0.314750  Biso 1.000000     C
    C   1.0     0.845754     0.079567     0.314749  Biso 1.000000     C
    C   1.0     0.348839     0.171914     0.271625  Biso 1.000000     C
    C   1.0     0.848849     0.171914     0.271625  Biso 1.000000     C
    C   1.0     0.159991     0.102675     0.288280  Biso 1.000000     C
    C   1.0     0.660001     0.102674     0.288280  Biso 1.000000     C
    C   1.0     0.408661     0.232154     0.252007  Biso 1.000000     C
    C   1.0     0.908671     0.232153     0.252007  Biso 1.000000     C
    C   1.0     0.398309     0.904924     0.484528  Biso 1.000000     C
    C   1.0     0.898323     0.904924     0.484529  Biso 1.000000     C
    C   1.0     0.340996     0.848294     0.500784  Biso 1.000000     C
    C   1.0     0.841010     0.848294     0.500786  Biso 1.000000     C
    C   1.0     0.299833     0.893540     0.563227  Biso 1.000000     C
    C   1.0     0.799846     0.893539     0.563228  Biso 1.000000     C
    C   1.0     0.326473     0.983738     0.594649  Biso 1.000000     C
    C   1.0     0.826487     0.983737     0.594651  Biso 1.000000     C
    C   1.0     0.447809     0.883126     0.416978  Biso 1.000000     C
    C   1.0     0.947822     0.883127     0.416979  Biso 1.000000     C
    C   1.0     0.297227     0.049795     0.661285  Biso 1.000000     C
    C   1.0     0.797239     0.049795     0.661286  Biso 1.000000     C
    C   1.0     0.021714     0.891059     0.788591  Biso 1.000000     C
    C   1.0     0.521724     0.891059     0.788591  Biso 1.000000     C
    C   1.0     0.475208     0.957505     0.823979  Biso 1.000000     C
    C   1.0     0.975219     0.957505     0.823979  Biso 1.000000     C
    C   1.0     0.409272     0.922743     0.813467  Biso 1.000000     C
    C   1.0     0.909282     0.922743     0.813467  Biso 1.000000     C
    C   1.0     0.406308     0.830650     0.769970  Biso 1.000000     C
    C   1.0     0.906318     0.830650     0.769971  Biso 1.000000     C
    C   1.0     0.095122     0.900381     0.787816  Biso 1.000000     C
    C   1.0     0.595133     0.900381     0.787816  Biso 1.000000     C
    C   1.0     0.346631     0.770231     0.750291  Biso 1.000000     C
    C   1.0     0.846641     0.770231     0.750291  Biso 1.000000     C
    C   1.0     0.356394     0.097542     0.984424  Biso 1.000000     C
    C   1.0     0.856405     0.097542     0.984424  Biso 1.000000     C
    C   1.0     0.413361     0.154899     0.000000  Biso 1.000000     C
    C   1.0     0.913372     0.154898     0.000000  Biso 1.000000     C
    C   1.0     0.454626     0.110210     0.063329  Biso 1.000000     C
    C   1.0     0.954636     0.110209     0.063329  Biso 1.000000     C
    C   1.0     0.428464     0.019658     0.094722  Biso 1.000000     C
    C   1.0     0.928475     0.019657     0.094720  Biso 1.000000     C
    C   1.0     0.306761     0.118621     0.916912  Biso 1.000000     C
    C   1.0     0.806772     0.118621     0.916912  Biso 1.000000     C
    C   1.0     0.457813     0.953882     0.161437  Biso 1.000000     C
    C   1.0     0.957824     0.953882     0.161437  Biso 1.000000     C
    C   1.0     0.270772     0.610729     0.213315  Biso 1.000000     C
    C   1.0     0.770782     0.610729     0.213317  Biso 1.000000     C
    C   1.0     0.224331     0.544799     0.177314  Biso 1.000000     C
    C   1.0     0.724341     0.544799     0.177315  Biso 1.000000     C
    C   1.0     0.158332     0.579416     0.188300  Biso 1.000000     C
    C   1.0     0.658343     0.579416     0.188301  Biso 1.000000     C
    C   1.0     0.155256     0.670981     0.232590  Biso 1.000000     C
    C   1.0     0.655266     0.670982     0.232591  Biso 1.000000     C
    C   1.0     0.344235     0.602133     0.214224  Biso 1.000000     C
    C   1.0     0.844245     0.602133     0.214226  Biso 1.000000     C
    C   1.0     0.095666     0.731636     0.252866  Biso 1.000000     C
    C   1.0     0.595676     0.731636     0.252866  Biso 1.000000     C
    C   1.0     0.106260     0.404485     0.019062  Biso 1.000000     C
    C   1.0     0.606271     0.404487     0.019064  Biso 1.000000     C
    C   1.0     0.163366     0.347289     0.002765  Biso 1.000000     C
    C   1.0     0.663378     0.347292     0.002767  Biso 1.000000     C
    C   1.0     0.204697     0.392146     0.940325  Biso 1.000000     C
    C   1.0     0.704708     0.392150     0.940327  Biso 1.000000     C
    C   1.0     0.178466     0.482672     0.908935  Biso 1.000000     C
    C   1.0     0.678476     0.482673     0.908935  Biso 1.000000     C
    C   1.0     0.056641     0.383448     0.086704  Biso 1.000000     C
    C   1.0     0.556651     0.383448     0.086703  Biso 1.000000     C
    C   1.0     0.207998     0.548550     0.842375  Biso 1.000000     C
    C   1.0     0.708008     0.548552     0.842375  Biso 1.000000     C
    C   1.0     0.483692     0.390925     0.714446  Biso 1.000000     C
    C   1.0     0.983702     0.390924     0.714445  Biso 1.000000     C
    C   1.0     0.030010     0.456869     0.678155  Biso 1.000000     C
    C   1.0     0.530021     0.456870     0.678157  Biso 1.000000     C
    C   1.0     0.096000     0.422300     0.688882  Biso 1.000000     C
    C   1.0     0.596011     0.422301     0.688884  Biso 1.000000     C
    C   1.0     0.099115     0.330772     0.733214  Biso 1.000000     C
    C   1.0     0.599126     0.330772     0.733215  Biso 1.000000     C
    C   1.0     0.410293     0.399614     0.715586  Biso 1.000000     C
    C   1.0     0.910303     0.399615     0.715586  Biso 1.000000     C
    C   1.0     0.158928     0.270727     0.753243  Biso 1.000000     C
    C   1.0     0.658939     0.270727     0.753243  Biso 1.000000     C
    C   1.0     0.148909     0.596249     0.519460  Biso 1.000000     C
    C   1.0     0.648919     0.596250     0.519459  Biso 1.000000     C
    C   1.0     0.092132     0.654191     0.503287  Biso 1.000000     C
    C   1.0     0.592142     0.654192     0.503287  Biso 1.000000     C
    C   1.0     0.050636     0.610099     0.440741  Biso 1.000000     C
    C   1.0     0.550646     0.610100     0.440740  Biso 1.000000     C
    C   1.0     0.076394     0.519313     0.409166  Biso 1.000000     C
    C   1.0     0.576404     0.519314     0.409166  Biso 1.000000     C
    C   1.0     0.198644     0.616967     0.586885  Biso 1.000000     C
    C   1.0     0.698654     0.616967     0.586885  Biso 1.000000     C
    C   1.0     0.046527     0.454211     0.342312  Biso 1.000000     C
    C   1.0     0.546537     0.454212     0.342312  Biso 1.000000     C
    O   1.0     0.134034     0.026746     0.326639  Biso 1.000000     O
    O   1.0     0.634043     0.026746     0.326639  Biso 1.000000     O
    O   1.0     0.399876     0.315102     0.211001  Biso 1.000000     O
    O   1.0     0.899886     0.315102     0.211001  Biso 1.000000     O
    O   1.0     0.491113     0.952162     0.399985  Biso 1.000000     O
    O   1.0     0.991124     0.952164     0.399985  Biso 1.000000     O
    O   1.0     0.241399     0.021555     0.693078  Biso 1.000000     O
    O   1.0     0.741411     0.021555     0.693079  Biso 1.000000     O
    O   1.0     0.129175     0.172834     0.247850  Biso 1.000000     O
    O   1.0     0.629185     0.172834     0.247850  Biso 1.000000     O
    O   1.0     0.442368     0.797846     0.378620  Biso 1.000000     O
    O   1.0     0.942383     0.797847     0.378622  Biso 1.000000     O
    O   1.0     0.330120     0.129573     0.681905  Biso 1.000000     O
    O   1.0     0.830133     0.129573     0.681905  Biso 1.000000     O
    O   1.0     0.464768     0.196380     0.277884  Biso 1.000000     O
    O   1.0     0.964778     0.196380     0.277884  Biso 1.000000     O
    O   1.0     0.120017     0.976974     0.826437  Biso 1.000000     O
    O   1.0     0.620028     0.976974     0.826437  Biso 1.000000     O
    O   1.0     0.355536     0.688480     0.707565  Biso 1.000000     O
    O   1.0     0.855546     0.688480     0.707565  Biso 1.000000     O
    O   1.0     0.264121     0.048600     0.899889  Biso 1.000000     O
    O   1.0     0.764131     0.048600     0.899889  Biso 1.000000     O
    O   1.0     0.013490     0.982256     0.193400  Biso 1.000000     O
    O   1.0     0.513500     0.982256     0.193401  Biso 1.000000     O
    O   1.0     0.127000     0.830992     0.747809  Biso 1.000000     O
    O   1.0     0.627011     0.830992     0.747808  Biso 1.000000     O
    O   1.0     0.311253     0.204095     0.878720  Biso 1.000000     O
    O   1.0     0.811264     0.204095     0.878721  Biso 1.000000     O
    O   1.0     0.424921     0.873946     0.181873  Biso 1.000000     O
    O   1.0     0.924932     0.873947     0.181874  Biso 1.000000     O
    O   1.0     0.290514     0.804301     0.777834  Biso 1.000000     O
    O   1.0     0.790524     0.804301     0.777834  Biso 1.000000     O
    O   1.0     0.370191     0.526852     0.174805  Biso 1.000000     O
    O   1.0     0.870201     0.526851     0.174807  Biso 1.000000     O
    O   1.0     0.105126     0.813182     0.295731  Biso 1.000000     O
    O   1.0     0.605136     0.813182     0.295732  Biso 1.000000     O
    O   1.0     0.013930     0.453456     0.103716  Biso 1.000000     O
    O   1.0     0.513940     0.453456     0.103716  Biso 1.000000     O
    O   1.0     0.263733     0.520005     0.810450  Biso 1.000000     O
    O   1.0     0.763742     0.520005     0.810450  Biso 1.000000     O
    O   1.0     0.375200     0.671342     0.255589  Biso 1.000000     O
    O   1.0     0.875211     0.671343     0.255590  Biso 1.000000     O
    O   1.0     0.061184     0.298024     0.124986  Biso 1.000000     O
    O   1.0     0.561194     0.298025     0.124986  Biso 1.000000     O
    O   1.0     0.175323     0.628746     0.821996  Biso 1.000000     O
    O   1.0     0.675334     0.628747     0.821996  Biso 1.000000     O
    O   1.0     0.039347     0.698144     0.225802  Biso 1.000000     O
    O   1.0     0.539357     0.698145     0.225802  Biso 1.000000     O
    O   1.0     0.384493     0.475378     0.676813  Biso 1.000000     O
    O   1.0     0.884503     0.475378     0.676812  Biso 1.000000     O
    O   1.0     0.150306     0.188965     0.795952  Biso 1.000000     O
    O   1.0     0.650316     0.188964     0.795952  Biso 1.000000     O
    O   1.0     0.241335     0.546965     0.603855  Biso 1.000000     O
    O   1.0     0.741345     0.546965     0.603854  Biso 1.000000     O
    O   1.0     0.491438     0.484605     0.309919  Biso 1.000000     O
    O   1.0     0.991449     0.484605     0.309919  Biso 1.000000     O
    O   1.0     0.379320     0.329839     0.756291  Biso 1.000000     O
    O   1.0     0.879330     0.329842     0.756292  Biso 1.000000     O
    O   1.0     0.194234     0.702463     0.625170  Biso 1.000000     O
    O   1.0     0.694244     0.702464     0.625169  Biso 1.000000     O
    O   1.0     0.078277     0.373140     0.322155  Biso 1.000000     O
    O   1.0     0.578287     0.373141     0.322155  Biso 1.000000     O
    O   1.0     0.214926     0.305471     0.725857  Biso 1.000000     O
    O   1.0     0.714937     0.305471     0.725857  Biso 1.000000     O
    S   1.0     0.270778     0.216256     0.243432  Biso 1.000000     S
    S   1.0     0.770788     0.216255     0.243431  Biso 1.000000     S
    S   1.0     0.401839     0.013587     0.546751  Biso 1.000000     S
    S   1.0     0.901853     0.013587     0.546753  Biso 1.000000     S
    S   1.0     0.484500     0.786473     0.741784  Biso 1.000000     S
    S   1.0     0.984511     0.786472     0.741784  Biso 1.000000     S
    S   1.0     0.353364     0.988844     0.046685  Biso 1.000000     S
    S   1.0     0.853375     0.988844     0.046686  Biso 1.000000     S
    S   1.0     0.233403     0.714798     0.261001  Biso 1.000000     S
    S   1.0     0.733413     0.714798     0.261002  Biso 1.000000     S
    S   1.0     0.103208     0.513269     0.956883  Biso 1.000000     S
    S   1.0     0.603218     0.513270     0.956883  Biso 1.000000     S
    S   1.0     0.021071     0.286881     0.762020  Biso 1.000000     S
    S   1.0     0.521082     0.286881     0.762019  Biso 1.000000     S
    S   1.0     0.151398     0.487568     0.457071  Biso 1.000000     S
    S   1.0     0.651408     0.487568     0.457071  Biso 1.000000     S
   Zn   1.0     0.055169     0.942723     0.303715  Biso 1.000000    Zn
   Zn   1.0     0.555179     0.942723     0.303715  Biso 1.000000    Zn
   Zn   1.0     0.049862     0.258658     0.247931  Biso 1.000000    Zn
   Zn   1.0     0.549873     0.258658     0.247931  Biso 1.000000    Zn
   Zn   1.0     0.200007     0.058369     0.803937  Biso 1.000000    Zn
   Zn   1.0     0.700018     0.058369     0.803937  Biso 1.000000    Zn
   Zn   1.0     0.205295     0.742185     0.747912  Biso 1.000000    Zn
   Zn   1.0     0.705305     0.742185     0.747912  Biso 1.000000    Zn
   Zn   1.0     0.449846     0.444673     0.199906  Biso 1.000000    Zn
   Zn   1.0     0.949856     0.444673     0.199906  Biso 1.000000    Zn
   Zn   1.0     0.453578     0.759650     0.255717  Biso 1.000000    Zn
   Zn   1.0     0.953589     0.759650     0.255717  Biso 1.000000    Zn
   Zn   1.0     0.305370     0.558986     0.699885  Biso 1.000000    Zn
   Zn   1.0     0.805380     0.558986     0.699885  Biso 1.000000    Zn
   Zn   1.0     0.300123     0.243719     0.755794  Biso 1.000000    Zn
   Zn   1.0     0.800134     0.243718     0.755794  Biso 1.000000    Zn
