#======================================================================

# CRYSTAL DATA

#----------------------------------------------------------------------

data_VESTA_phase_1


_pd_phase_name                         MOF
_cell_length_a                         22.77700
_cell_length_b                         19.15700
_cell_length_c                         19.14800
_cell_angle_alpha                      89.99600
_cell_angle_beta                       90.00600
_cell_angle_gamma                      89.90400
_symmetry_space_group_name_H-M         "P 1"
_symmetry_Int_Tables_number            1

loop_
_symmetry_equiv_pos_as_xyz
   "x, y, z"

loop_
   _atom_site_label
   _atom_site_occupancy
   _atom_site_fract_x
   _atom_site_fract_y
   _atom_site_fract_z
   _atom_site_adp_type
   _atom_site_B_iso_or_equiv
   _atom_site_type_symbol
    H   1.0     0.390817     0.206188    -0.000579  Biso 1.000000     H
    H   1.0     0.891257     0.206100    -0.000818  Biso 1.000000     H
    H   1.0     0.183836     0.264059     0.051695  Biso 1.000000     H
    H   1.0     0.684227     0.263399     0.051852  Biso 1.000000     H
    H   1.0     0.390742     0.793690     0.000000  Biso 1.000000     H
    H   1.0     0.890739     0.793720     0.000000  Biso 1.000000     H
    H   1.0     0.184376     0.733239     0.948372  Biso 1.000000     H
    H   1.0     0.684383     0.733230     0.948314  Biso 1.000000     H
    H   1.0     0.141080     0.000000     0.206283  Biso 1.000000     H
    H   1.0     0.640771     0.000000     0.206148  Biso 1.000000     H
    H   1.0     0.434306     0.948586     0.266431  Biso 1.000000     H
    H   1.0     0.934529     0.948954     0.266686  Biso 1.000000     H
    H   1.0     0.140699    -0.001352     0.792601  Biso 1.000000     H
    H   1.0     0.640689    -0.001359     0.792545  Biso 1.000000     H
    H   1.0     0.434002     0.051476     0.733718  Biso 1.000000     H
    H   1.0     0.934009     0.051465     0.733728  Biso 1.000000     H
    H   1.0     0.390714     0.706633     0.500244  Biso 1.000000     H
    H   1.0     0.890677     0.706807     0.500192  Biso 1.000000     H
    H   1.0     0.183650     0.764397     0.448341  Biso 1.000000     H
    H   1.0     0.683579     0.764356     0.448263  Biso 1.000000     H
    H   1.0     0.390775     0.293713     0.499644  Biso 1.000000     H
    H   1.0     0.890758     0.293511     0.499563  Biso 1.000000     H
    H   1.0     0.184384     0.233392     0.551575  Biso 1.000000     H
    H   1.0     0.684340     0.233346     0.551482  Biso 1.000000     H
    H   1.0     0.140689     0.500229     0.293026  Biso 1.000000     H
    H   1.0     0.640788     0.500206     0.292844  Biso 1.000000     H
    H   1.0     0.434065     0.448614     0.233800  Biso 1.000000     H
    H   1.0     0.933969     0.448801     0.233818  Biso 1.000000     H
    H   1.0     0.140818     0.498744     0.707518  Biso 1.000000     H
    H   1.0     0.640765     0.498693     0.707411  Biso 1.000000     H
    H   1.0     0.434090     0.551410     0.766383  Biso 1.000000     H
    H   1.0     0.933984     0.551432     0.765752  Biso 1.000000     H
    C   1.0     0.246729     0.245431     0.970831  Biso 1.000000     C
    C   1.0     0.747054     0.245069     0.970839  Biso 1.000000     C
    C   1.0     0.305751     0.229323     0.955934  Biso 1.000000     C
    C   1.0     0.806081     0.229065     0.955871  Biso 1.000000     C
    C   1.0     0.345119     0.218345     0.010723  Biso 1.000000     C
    C   1.0     0.845549     0.218126     0.010583  Biso 1.000000     C
    C   1.0     0.328096     0.224494     0.080553  Biso 1.000000     C
    C   1.0     0.828616     0.224146     0.080452  Biso 1.000000     C
    C   1.0     0.269278     0.242191     0.095812  Biso 1.000000     C
    C   1.0     0.769745     0.241640     0.095803  Biso 1.000000     C
    C   1.0     0.229499     0.250856     0.040939  Biso 1.000000     C
    C   1.0     0.729898     0.250313     0.040986  Biso 1.000000     C
    C   1.0     0.201327     0.261381     0.915949  Biso 1.000000     C
    C   1.0     0.701622     0.261142     0.915996  Biso 1.000000     C
    C   1.0     0.332583     0.226949     0.884473  Biso 1.000000     C
    C   1.0     0.832750     0.226781     0.884340  Biso 1.000000     C
    C   1.0     0.374225     0.213884     0.135381  Biso 1.000000     C
    C   1.0     0.874809     0.213607     0.135286  Biso 1.000000     C
    C   1.0     0.246042     0.254688     0.168432  Biso 1.000000     C
    C   1.0     0.746378     0.254111     0.168396  Biso 1.000000     C
    C   1.0     0.247121     0.752729     0.029138  Biso 1.000000     C
    C   1.0     0.747121     0.752754     0.029079  Biso 1.000000     C
    C   1.0     0.305945     0.769673     0.043930  Biso 1.000000     C
    C   1.0     0.805944     0.769713     0.043870  Biso 1.000000     C
    C   1.0     0.345165     0.781019     0.989103  Biso 1.000000     C
    C   1.0     0.845163     0.781046     0.989035  Biso 1.000000     C
    C   1.0     0.328148     0.774570     0.919296  Biso 1.000000     C
    C   1.0     0.828149     0.774582     0.919227  Biso 1.000000     C
    C   1.0     0.269495     0.756256     0.904134  Biso 1.000000     C
    C   1.0     0.769497     0.756260     0.904071  Biso 1.000000     C
    C   1.0     0.229889     0.747047     0.959059  Biso 1.000000     C
    C   1.0     0.729892     0.747052     0.959000  Biso 1.000000     C
    C   1.0     0.201984     0.736401     0.084141  Biso 1.000000     C
    C   1.0     0.701981     0.736425     0.084083  Biso 1.000000     C
    C   1.0     0.332768     0.772297     0.115372  Biso 1.000000     C
    C   1.0     0.832772     0.772354     0.115313  Biso 1.000000     C
    C   1.0     0.374177     0.785380     0.864429  Biso 1.000000     C
    C   1.0     0.874181     0.785383     0.864356  Biso 1.000000     C
    C   1.0     0.246247     0.743859     0.831514  Biso 1.000000     C
    C   1.0     0.746249     0.743859     0.831453  Biso 1.000000     C
    C   1.0    -0.002497     0.029427     0.247394  Biso 1.000000     C
    C   1.0     0.497106     0.029248     0.247130  Biso 1.000000     C
    C   1.0     0.056382     0.043949     0.230548  Biso 1.000000     C
    C   1.0     0.555968     0.043940     0.230301  Biso 1.000000     C
    C   1.0     0.095468     0.988967     0.218951  Biso 1.000000     C
    C   1.0     0.595180     0.989044     0.218808  Biso 1.000000     C
    C   1.0     0.078268     0.919264     0.225129  Biso 1.000000     C
    C   1.0     0.578137     0.919289     0.225042  Biso 1.000000     C
    C   1.0     0.019574     0.904334     0.243506  Biso 1.000000     C
    C   1.0     0.519463     0.904221     0.243394  Biso 1.000000     C
    C   1.0     0.479849     0.959196     0.252687  Biso 1.000000     C
    C   1.0     0.980083     0.959422     0.252891  Biso 1.000000     C
    C   1.0     0.451918     0.084298     0.263408  Biso 1.000000     C
    C   1.0     0.952487     0.084613     0.263818  Biso 1.000000     C
    C   1.0     0.083326     0.115226     0.228262  Biso 1.000000     C
    C   1.0     0.582767     0.115314     0.227791  Biso 1.000000     C
    C   1.0     0.124224     0.864313     0.213933  Biso 1.000000     C
    C   1.0     0.624171     0.864400     0.213890  Biso 1.000000     C
    C   1.0     0.496202     0.831659     0.255716  Biso 1.000000     C
    C   1.0     0.996209     0.831798     0.255789  Biso 1.000000     C
    C   1.0    -0.003208     0.970426     0.752604  Biso 1.000000     C
    C   1.0     0.496773     0.970430     0.752582  Biso 1.000000     C
    C   1.0     0.055717     0.955427     0.769082  Biso 1.000000     C
    C   1.0     0.555702     0.955428     0.769043  Biso 1.000000     C
    C   1.0     0.095065     0.010095     0.780245  Biso 1.000000     C
    C   1.0     0.595054     0.010092     0.780199  Biso 1.000000     C
    C   1.0     0.078096     0.079933     0.774091  Biso 1.000000     C
    C   1.0     0.578090     0.079935     0.774067  Biso 1.000000     C
    C   1.0     0.019342     0.095333     0.756187  Biso 1.000000     C
    C   1.0     0.519333     0.095339     0.756176  Biso 1.000000     C
    C   1.0     0.479596     0.040592     0.747154  Biso 1.000000     C
    C   1.0     0.979603     0.040585     0.747170  Biso 1.000000     C
    C   1.0     0.451442     0.915649     0.736479  Biso 1.000000     C
    C   1.0     0.951473     0.915637     0.736471  Biso 1.000000     C
    C   1.0     0.082569     0.884005     0.771728  Biso 1.000000     C
    C   1.0     0.582554     0.884007     0.771688  Biso 1.000000     C
    C   1.0     0.124257     0.134543     0.784968  Biso 1.000000     C
    C   1.0     0.624264     0.134530     0.784972  Biso 1.000000     C
    C   1.0     0.496117     0.168050     0.744080  Biso 1.000000     C
    C   1.0     0.996142     0.168046     0.744058  Biso 1.000000     C
    C   1.0     0.246641     0.745684     0.529100  Biso 1.000000     C
    C   1.0     0.746572     0.745699     0.529035  Biso 1.000000     C
    C   1.0     0.305678     0.729564     0.543914  Biso 1.000000     C
    C   1.0     0.805622     0.729643     0.543854  Biso 1.000000     C
    C   1.0     0.344996     0.718764     0.489025  Biso 1.000000     C
    C   1.0     0.844950     0.718882     0.488967  Biso 1.000000     C
    C   1.0     0.327903     0.725026     0.419216  Biso 1.000000     C
    C   1.0     0.827861     0.725115     0.419156  Biso 1.000000     C
    C   1.0     0.269040     0.742638     0.404051  Biso 1.000000     C
    C   1.0     0.768988     0.742677     0.403985  Biso 1.000000     C
    C   1.0     0.229337     0.751215     0.459002  Biso 1.000000     C
    C   1.0     0.729273     0.751216     0.458932  Biso 1.000000     C
    C   1.0     0.201277     0.761524     0.584034  Biso 1.000000     C
    C   1.0     0.701193     0.761514     0.583964  Biso 1.000000     C
    C   1.0     0.332578     0.727070     0.615350  Biso 1.000000     C
    C   1.0     0.832546     0.727183     0.615278  Biso 1.000000     C
    C   1.0     0.374056     0.714642     0.364380  Biso 1.000000     C
    C   1.0     0.874026     0.714740     0.364331  Biso 1.000000     C
    C   1.0     0.245568     0.754866     0.331472  Biso 1.000000     C
    C   1.0     0.745526     0.754904     0.331402  Biso 1.000000     C
    C   1.0     0.247141     0.252890     0.470811  Biso 1.000000     C
    C   1.0     0.747111     0.252768     0.470712  Biso 1.000000     C
    C   1.0     0.305976     0.269765     0.456013  Biso 1.000000     C
    C   1.0     0.805958     0.269599     0.455920  Biso 1.000000     C
    C   1.0     0.345195     0.281057     0.510871  Biso 1.000000     C
    C   1.0     0.845172     0.280883     0.510787  Biso 1.000000     C
    C   1.0     0.328175     0.274605     0.580674  Biso 1.000000     C
    C   1.0     0.828146     0.274472     0.580589  Biso 1.000000     C
    C   1.0     0.269521     0.256300     0.595842  Biso 1.000000     C
    C   1.0     0.769478     0.256217     0.595768  Biso 1.000000     C
    C   1.0     0.229906     0.247162     0.540906  Biso 1.000000     C
    C   1.0     0.729871     0.247081     0.540817  Biso 1.000000     C
    C   1.0     0.201965     0.236688     0.415818  Biso 1.000000     C
    C   1.0     0.701914     0.236568     0.415722  Biso 1.000000     C
    C   1.0     0.332772     0.272427     0.384558  Biso 1.000000     C
    C   1.0     0.832780     0.272316     0.384476  Biso 1.000000     C
    C   1.0     0.374197     0.285438     0.635546  Biso 1.000000     C
    C   1.0     0.874177     0.285309     0.635445  Biso 1.000000     C
    C   1.0     0.246259     0.243855     0.668455  Biso 1.000000     C
    C   1.0     0.746222     0.243791     0.668403  Biso 1.000000     C
    C   1.0    -0.003129     0.529401     0.252911  Biso 1.000000     C
    C   1.0     0.496927     0.529256     0.252857  Biso 1.000000     C
    C   1.0     0.055798     0.544023     0.269483  Biso 1.000000     C
    C   1.0     0.555856     0.543941     0.269386  Biso 1.000000     C
    C   1.0     0.095048     0.489086     0.280590  Biso 1.000000     C
    C   1.0     0.595142     0.489033     0.280460  Biso 1.000000     C
    C   1.0     0.077986     0.419345     0.274258  Biso 1.000000     C
    C   1.0     0.578101     0.419278     0.274175  Biso 1.000000     C
    C   1.0     0.019206     0.404366     0.256251  Biso 1.000000     C
    C   1.0     0.519329     0.404232     0.256224  Biso 1.000000     C
    C   1.0     0.479664     0.459219     0.247286  Biso 1.000000     C
    C   1.0     0.979567     0.459383     0.247327  Biso 1.000000     C
    C   1.0     0.451672     0.584306     0.236831  Biso 1.000000     C
    C   1.0     0.951661     0.584487     0.236833  Biso 1.000000     C
    C   1.0     0.082639     0.615371     0.272095  Biso 1.000000     C
    C   1.0     0.582648     0.615326     0.272003  Biso 1.000000     C
    C   1.0     0.124083     0.364447     0.285175  Biso 1.000000     C
    C   1.0     0.624198     0.364382     0.285031  Biso 1.000000     C
    C   1.0     0.496018     0.331699     0.243888  Biso 1.000000     C
    C   1.0     0.995864     0.331886     0.243743  Biso 1.000000     C
    C   1.0    -0.003159     0.470451     0.747035  Biso 1.000000     C
    C   1.0     0.496888     0.470417     0.747478  Biso 1.000000     C
    C   1.0     0.055806     0.455481     0.730762  Biso 1.000000     C
    C   1.0     0.555810     0.455439     0.730975  Biso 1.000000     C
    C   1.0     0.095158     0.510162     0.719748  Biso 1.000000     C
    C   1.0     0.595134     0.510117     0.719793  Biso 1.000000     C
    C   1.0     0.078145     0.579991     0.725857  Biso 1.000000     C
    C   1.0     0.578141     0.579951     0.725931  Biso 1.000000     C
    C   1.0     0.019353     0.595359     0.743606  Biso 1.000000     C
    C   1.0     0.519386     0.595327     0.743853  Biso 1.000000     C
    C   1.0     0.479681     0.540556     0.752918  Biso 1.000000     C
    C   1.0     0.979614     0.540585     0.752468  Biso 1.000000     C
    C   1.0     0.451593     0.415602     0.763570  Biso 1.000000     C
    C   1.0     0.951505     0.415615     0.762892  Biso 1.000000     C
    C   1.0     0.082623     0.384040     0.728090  Biso 1.000000     C
    C   1.0     0.582637     0.383998     0.728278  Biso 1.000000     C
    C   1.0     0.124280     0.634637     0.715016  Biso 1.000000     C
    C   1.0     0.624271     0.634595     0.715017  Biso 1.000000     C
    C   1.0     0.496142     0.668034     0.755917  Biso 1.000000     C
    C   1.0     0.996099     0.668057     0.755698  Biso 1.000000     C
    O   1.0     0.221379     0.261459     0.849862  Biso 1.000000     O
    O   1.0     0.721647     0.261371     0.849881  Biso 1.000000     O
    O   1.0     0.150193     0.274979     0.930454  Biso 1.000000     O
    O   1.0     0.650489     0.274725     0.930532  Biso 1.000000     O
    O   1.0     0.322501     0.177167     0.841460  Biso 1.000000     O
    O   1.0     0.822609     0.177001     0.841345  Biso 1.000000     O
    O   1.0     0.369709     0.275054     0.873217  Biso 1.000000     O
    O   1.0     0.869768     0.274987     0.872995  Biso 1.000000     O
    O   1.0     0.425501     0.196248     0.113508  Biso 1.000000     O
    O   1.0     0.926300     0.196708     0.113551  Biso 1.000000     O
    O   1.0     0.359704     0.223450     0.198689  Biso 1.000000     O
    O   1.0     0.859896     0.222511     0.198569  Biso 1.000000     O
    O   1.0     0.211732     0.208617     0.192725  Biso 1.000000     O
    O   1.0     0.711886     0.208158     0.192541  Biso 1.000000     O
    O   1.0     0.259579     0.312499     0.197291  Biso 1.000000     O
    O   1.0     0.759872     0.311910     0.197314  Biso 1.000000     O
    O   1.0     0.222087     0.736549     0.150206  Biso 1.000000     O
    O   1.0     0.722069     0.736614     0.150154  Biso 1.000000     O
    O   1.0     0.150927     0.722407     0.069761  Biso 1.000000     O
    O   1.0     0.650934     0.722391     0.069698  Biso 1.000000     O
    O   1.0     0.322447     0.822114     0.158353  Biso 1.000000     O
    O   1.0     0.822424     0.822137     0.158324  Biso 1.000000     O
    O   1.0     0.370088     0.724307     0.126713  Biso 1.000000     O
    O   1.0     0.870135     0.724403     0.126634  Biso 1.000000     O
    O   1.0     0.425318     0.803410     0.886283  Biso 1.000000     O
    O   1.0     0.925319     0.803409     0.886228  Biso 1.000000     O
    O   1.0     0.359735     0.775504     0.801142  Biso 1.000000     O
    O   1.0     0.859752     0.775506     0.801066  Biso 1.000000     O
    O   1.0     0.211947     0.790107     0.807257  Biso 1.000000     O
    O   1.0     0.711962     0.790120     0.807189  Biso 1.000000     O
    O   1.0     0.259780     0.686022     0.802624  Biso 1.000000     O
    O   1.0     0.759767     0.686014     0.802572  Biso 1.000000     O
    O   1.0     0.472006     0.150317     0.263136  Biso 1.000000     O
    O   1.0     0.972436     0.150652     0.262801  Biso 1.000000     O
    O   1.0     0.400860     0.070007     0.277447  Biso 1.000000     O
    O   1.0     0.901578     0.070386     0.278672  Biso 1.000000     O
    O   1.0     0.073633     0.158064     0.178107  Biso 1.000000     O
    O   1.0     0.572578     0.158217     0.177872  Biso 1.000000     O
    O   1.0     0.120015     0.126674     0.276823  Biso 1.000000     O
    O   1.0     0.619852     0.126667     0.275974  Biso 1.000000     O
    O   1.0     0.175222     0.886019     0.195182  Biso 1.000000     O
    O   1.0     0.675172     0.886138     0.195191  Biso 1.000000     O
    O   1.0     0.109870     0.801105     0.224177  Biso 1.000000     O
    O   1.0     0.609851     0.801172     0.224108  Biso 1.000000     O
    O   1.0     0.461929     0.807524     0.209465  Biso 1.000000     O
    O   1.0     0.961906     0.807732     0.209537  Biso 1.000000     O
    O   1.0     0.009756     0.802713     0.313554  Biso 1.000000     O
    O   1.0     0.509743     0.802628     0.313509  Biso 1.000000     O
    O   1.0     0.471426     0.849502     0.736872  Biso 1.000000     O
    O   1.0     0.971479     0.849499     0.736807  Biso 1.000000     O
    O   1.0     0.400412     0.930254     0.722431  Biso 1.000000     O
    O   1.0     0.900435     0.930229     0.722444  Biso 1.000000     O
    O   1.0     0.072450     0.841265     0.821764  Biso 1.000000     O
    O   1.0     0.572454     0.841276     0.821738  Biso 1.000000     O
    O   1.0     0.119736     0.872465     0.723637  Biso 1.000000     O
    O   1.0     0.619705     0.872452     0.723582  Biso 1.000000     O
    O   1.0     0.175396     0.112392     0.802950  Biso 1.000000     O
    O   1.0     0.675402     0.112348     0.802917  Biso 1.000000     O
    O   1.0     0.109899     0.197868     0.775265  Biso 1.000000     O
    O   1.0     0.609914     0.197868     0.775332  Biso 1.000000     O
    O   1.0     0.461878     0.192195     0.790423  Biso 1.000000     O
    O   1.0     0.961936     0.192247     0.790400  Biso 1.000000     O
    O   1.0     0.009699     0.197166     0.686348  Biso 1.000000     O
    O   1.0     0.509683     0.197217     0.686400  Biso 1.000000     O
    O   1.0     0.221391     0.761636     0.650100  Biso 1.000000     O
    O   1.0     0.721284     0.761591     0.650037  Biso 1.000000     O
    O   1.0     0.150111     0.775015     0.569585  Biso 1.000000     O
    O   1.0     0.650036     0.775027     0.569507  Biso 1.000000     O
    O   1.0     0.322473     0.677301     0.658379  Biso 1.000000     O
    O   1.0     0.822466     0.677447     0.658356  Biso 1.000000     O
    O   1.0     0.369775     0.775101     0.626603  Biso 1.000000     O
    O   1.0     0.869765     0.775208     0.626469  Biso 1.000000     O
    O   1.0     0.425268     0.696686     0.386212  Biso 1.000000     O
    O   1.0     0.925235     0.696789     0.386185  Biso 1.000000     O
    O   1.0     0.359621     0.724742     0.301107  Biso 1.000000     O
    O   1.0     0.859608     0.724832     0.301053  Biso 1.000000     O
    O   1.0     0.212007     0.708119     0.307028  Biso 1.000000     O
    O   1.0     0.712001     0.708135     0.306929  Biso 1.000000     O
    O   1.0     0.258065     0.813103     0.302765  Biso 1.000000     O
    O   1.0     0.758000     0.813158     0.302718  Biso 1.000000     O
    O   1.0     0.222036     0.236933     0.349737  Biso 1.000000     O
    O   1.0     0.721969     0.236765     0.349630  Biso 1.000000     O
    O   1.0     0.150913     0.222693     0.430194  Biso 1.000000     O
    O   1.0     0.650860     0.222616     0.430133  Biso 1.000000     O
    O   1.0     0.322445     0.322295     0.341655  Biso 1.000000     O
    O   1.0     0.822429     0.322233     0.341637  Biso 1.000000     O
    O   1.0     0.370043     0.224394     0.373152  Biso 1.000000     O
    O   1.0     0.870078     0.224324     0.373039  Biso 1.000000     O
    O   1.0     0.425344     0.303467     0.613723  Biso 1.000000     O
    O   1.0     0.925325     0.303355     0.613638  Biso 1.000000     O
    O   1.0     0.359733     0.275594     0.698826  Biso 1.000000     O
    O   1.0     0.859719     0.275446     0.698722  Biso 1.000000     O
    O   1.0     0.211926     0.290073     0.692690  Biso 1.000000     O
    O   1.0     0.711895     0.290002     0.692667  Biso 1.000000     O
    O   1.0     0.259795     0.186013     0.697343  Biso 1.000000     O
    O   1.0     0.759783     0.185957     0.697294  Biso 1.000000     O
    O   1.0     0.471796     0.650310     0.236961  Biso 1.000000     O
    O   1.0     0.971829     0.650472     0.236936  Biso 1.000000     O
    O   1.0     0.400557     0.570036     0.223065  Biso 1.000000     O
    O   1.0     0.900541     0.570264     0.223050  Biso 1.000000     O
    O   1.0     0.072490     0.658238     0.322055  Biso 1.000000     O
    O   1.0     0.572493     0.658160     0.321993  Biso 1.000000     O
    O   1.0     0.119738     0.626706     0.223929  Biso 1.000000     O
    O   1.0     0.619717     0.626730     0.223820  Biso 1.000000     O
    O   1.0     0.175282     0.386293     0.302961  Biso 1.000000     O
    O   1.0     0.675386     0.386224     0.302870  Biso 1.000000     O
    O   1.0     0.109653     0.301141     0.275768  Biso 1.000000     O
    O   1.0     0.609769     0.301096     0.275504  Biso 1.000000     O
    O   1.0     0.461534     0.307706     0.289986  Biso 1.000000     O
    O   1.0     0.961009     0.308020     0.289495  Biso 1.000000     O
    O   1.0     0.010011     0.302696     0.186242  Biso 1.000000     O
    O   1.0     0.509753     0.302545     0.186239  Biso 1.000000     O
    O   1.0     0.471619     0.349471     0.763216  Biso 1.000000     O
    O   1.0     0.971642     0.349528     0.763069  Biso 1.000000     O
    O   1.0     0.400541     0.430157     0.777562  Biso 1.000000     O
    O   1.0     0.900328     0.430130     0.776244  Biso 1.000000     O
    O   1.0     0.072457     0.341341     0.678039  Biso 1.000000     O
    O   1.0     0.572482     0.341335     0.678193  Biso 1.000000     O
    O   1.0     0.119785     0.372443     0.776184  Biso 1.000000     O
    O   1.0     0.619787     0.372375     0.776380  Biso 1.000000     O
    O   1.0     0.175424     0.612555     0.697010  Biso 1.000000     O
    O   1.0     0.675408     0.612512     0.696980  Biso 1.000000     O
    O   1.0     0.109886     0.697946     0.724748  Biso 1.000000     O
    O   1.0     0.609880     0.697905     0.724757  Biso 1.000000     O
    O   1.0     0.461928     0.692173     0.709528  Biso 1.000000     O
    O   1.0     0.961921     0.692229     0.709291  Biso 1.000000     O
    O   1.0     0.009582     0.697176     0.813431  Biso 1.000000     O
    O   1.0     0.509656     0.697199     0.813613  Biso 1.000000     O
   Zn   1.0     0.245447     0.170565     0.797470  Biso 1.000000    Zn
   Zn   1.0     0.745501     0.170459     0.797429  Biso 1.000000    Zn
   Zn   1.0     0.159941     0.283098     0.777623  Biso 1.000000    Zn
   Zn   1.0     0.660015     0.283054     0.777739  Biso 1.000000    Zn
   Zn   1.0     0.245349     0.827829     0.202268  Biso 1.000000    Zn
   Zn   1.0     0.745307     0.827893     0.202212  Biso 1.000000    Zn
   Zn   1.0     0.159997     0.715859     0.222097  Biso 1.000000    Zn
   Zn   1.0     0.659970     0.715906     0.222043  Biso 1.000000    Zn
   Zn   1.0    -0.003184     0.202434     0.171704  Biso 1.000000    Zn
   Zn   1.0     0.495509     0.202362     0.171883  Biso 1.000000    Zn
   Zn   1.0     0.409996     0.222375     0.283715  Biso 1.000000    Zn
   Zn   1.0     0.910027     0.222238     0.283574  Biso 1.000000    Zn
   Zn   1.0    -0.004613     0.797426     0.827929  Biso 1.000000    Zn
   Zn   1.0     0.495389     0.797452     0.827980  Biso 1.000000    Zn
   Zn   1.0     0.409915     0.777303     0.715974  Biso 1.000000    Zn
   Zn   1.0     0.909912     0.777356     0.715852  Biso 1.000000    Zn
   Zn   1.0     0.245460     0.670787     0.702476  Biso 1.000000    Zn
   Zn   1.0     0.745441     0.670779     0.702417  Biso 1.000000    Zn
   Zn   1.0     0.159932     0.783141     0.722351  Biso 1.000000    Zn
   Zn   1.0     0.659906     0.783129     0.722338  Biso 1.000000    Zn
   Zn   1.0     0.245419     0.327931     0.297422  Biso 1.000000    Zn
   Zn   1.0     0.745442     0.327767     0.297329  Biso 1.000000    Zn
   Zn   1.0     0.160004     0.216100     0.277868  Biso 1.000000    Zn
   Zn   1.0     0.660014     0.215920     0.277624  Biso 1.000000    Zn
   Zn   1.0    -0.004544     0.702551     0.328068  Biso 1.000000    Zn
   Zn   1.0     0.495463     0.702469     0.328052  Biso 1.000000    Zn
   Zn   1.0     0.410005     0.722527     0.216197  Biso 1.000000    Zn
   Zn   1.0     0.910008     0.722655     0.216155  Biso 1.000000    Zn
   Zn   1.0    -0.004579     0.297399     0.671944  Biso 1.000000    Zn
   Zn   1.0     0.495424     0.297467     0.672030  Biso 1.000000    Zn
   Zn   1.0     0.409939     0.277385     0.783946  Biso 1.000000    Zn
   Zn   1.0     0.909954     0.277408     0.783752  Biso 1.000000    Zn
