#======================================================================

# CRYSTAL DATA

#----------------------------------------------------------------------

data_VESTA_phase_1


_pd_phase_name                         MOF
_cell_length_a                         12.77200
_cell_length_b                         15.10000
_cell_length_c                         19.44500
_cell_angle_alpha                      90.08000
_cell_angle_beta                       90.02800
_cell_angle_gamma                      89.99300
_symmetry_space_group_name_H-M         "P 1"
_symmetry_Int_Tables_number            1

loop_
_symmetry_equiv_pos_as_xyz
   "x, y, z"

loop_
   _atom_site_label
   _atom_site_occupancy
   _atom_site_fract_x
   _atom_site_fract_y
   _atom_site_fract_z
   _atom_site_adp_type
   _atom_site_B_iso_or_equiv
   _atom_site_type_symbol
    H   1.0     0.314130     0.051855     0.154910  Biso 1.000000     H
    H   1.0     0.422556     0.919060     0.185437  Biso 1.000000     H
    H   1.0     0.619623     0.091691     0.305923  Biso 1.000000     H
    H   1.0     0.505674     0.219135     0.268947  Biso 1.000000     H
    H   1.0     0.376874     0.152751     0.035918  Biso 1.000000     H
    H   1.0     0.503375     0.150680     0.936027  Biso 1.000000     H
    H   1.0     0.593248     0.415792     0.991422  Biso 1.000000     H
    H   1.0     0.459603     0.409335     0.087400  Biso 1.000000     H
    H   1.0     0.686012     0.552103     0.345002  Biso 1.000000     H
    H   1.0     0.577390     0.419262     0.314568  Biso 1.000000     H
    H   1.0     0.380398     0.591614     0.194117  Biso 1.000000     H
    H   1.0     0.494495     0.719103     0.231028  Biso 1.000000     H
    H   1.0     0.623250     0.652890     0.463745  Biso 1.000000     H
    H   1.0     0.496748     0.650670     0.563656  Biso 1.000000     H
    H   1.0     0.406526     0.915745     0.508923  Biso 1.000000     H
    H   1.0     0.540162     0.909428     0.412879  Biso 1.000000     H
    H   1.0     0.123613     0.846703     0.536781  Biso 1.000000     H
    H   1.0    -0.003608     0.849209     0.437191  Biso 1.000000     H
    H   1.0     0.906726     0.583955     0.491630  Biso 1.000000     H
    H   1.0     0.000000     0.590116     0.587551  Biso 1.000000     H
    H   1.0     0.186514     0.947751     0.655232  Biso 1.000000     H
    H   1.0     0.077970     0.080769     0.685230  Biso 1.000000     H
    H   1.0     0.880138     0.908955     0.805402  Biso 1.000000     H
    H   1.0    -0.005623     0.781272     0.769044  Biso 1.000000     H
    H   1.0     0.876585     0.347005     0.963555  Biso 1.000000     H
    H   1.0     0.000000     0.349305     0.063225  Biso 1.000000     H
    H   1.0     0.093055     0.083980     0.008178  Biso 1.000000     H
    H   1.0    -0.040785     0.090327     0.912232  Biso 1.000000     H
    H   1.0     0.813577     0.448071     0.844843  Biso 1.000000     H
    H   1.0     0.921962     0.581034     0.814742  Biso 1.000000     H
    H   1.0     0.119766     0.408806     0.694482  Biso 1.000000     H
    H   1.0     0.000000     0.281216     0.730950  Biso 1.000000     H
    H   1.0     0.685843     0.948188     0.845086  Biso 1.000000     H
    H   1.0     0.577418     0.080984     0.814564  Biso 1.000000     H
    H   1.0     0.380351     0.908358     0.694072  Biso 1.000000     H
    H   1.0     0.494301     0.780912     0.731045  Biso 1.000000     H
    H   1.0     0.623058     0.847311     0.964063  Biso 1.000000     H
    H   1.0     0.496564     0.849379     0.063955  Biso 1.000000     H
    H   1.0     0.406757     0.584239     0.008595  Biso 1.000000     H
    H   1.0     0.540395     0.590701     0.912613  Biso 1.000000     H
    H   1.0     0.313962     0.447945     0.654991  Biso 1.000000     H
    H   1.0     0.422589     0.580780     0.685431  Biso 1.000000     H
    H   1.0     0.619571     0.408416     0.805878  Biso 1.000000     H
    H   1.0     0.505470     0.280932     0.768961  Biso 1.000000     H
    H   1.0     0.376701     0.347147     0.536237  Biso 1.000000     H
    H   1.0     0.503205     0.349362     0.436326  Biso 1.000000     H
    H   1.0     0.593470     0.084310     0.491092  Biso 1.000000     H
    H   1.0     0.459830     0.090628     0.587134  Biso 1.000000     H
    H   1.0     0.876370     0.153335     0.463187  Biso 1.000000     H
    H   1.0     0.000000     0.150821     0.562768  Biso 1.000000     H
    H   1.0     0.093216     0.416101     0.508367  Biso 1.000000     H
    H   1.0    -0.040768     0.409944     0.412448  Biso 1.000000     H
    H   1.0     0.813455     0.052293     0.344762  Biso 1.000000     H
    H   1.0     0.922000     0.919272     0.314771  Biso 1.000000     H
    H   1.0     0.119833     0.091078     0.194592  Biso 1.000000     H
    H   1.0     0.000000     0.218763     0.230945  Biso 1.000000     H
    H   1.0     0.123426     0.653063     0.036414  Biso 1.000000     H
    H   1.0    -0.003614     0.650762     0.936742  Biso 1.000000     H
    H   1.0     0.906865     0.916047     0.991840  Biso 1.000000     H
    H   1.0     0.000000     0.909705     0.087783  Biso 1.000000     H
    H   1.0     0.186394     0.551969     0.155149  Biso 1.000000     H
    H   1.0     0.078012     0.419005     0.185249  Biso 1.000000     H
    H   1.0     0.880186     0.591234     0.305492  Biso 1.000000     H
    H   1.0    -0.005747     0.718823     0.269031  Biso 1.000000     H
    C   1.0     0.383513     0.058135     0.187176  Biso 1.000000     C
    C   1.0     0.443896    -0.015431     0.204443  Biso 1.000000     C
    C   1.0     0.530821    -0.003890     0.247417  Biso 1.000000     C
    C   1.0     0.553754     0.081363     0.271286  Biso 1.000000     C
    C   1.0     0.490690     0.151774     0.251369  Biso 1.000000     C
    C   1.0     0.595445     0.918530     0.271466  Biso 1.000000     C
    C   1.0     0.426603     0.209388     0.024140  Biso 1.000000     C
    C   1.0     0.496091     0.208593     0.969081  Biso 1.000000     C
    C   1.0     0.559046     0.282860     0.957577  Biso 1.000000     C
    C   1.0     0.545502     0.357047    -0.000211  Biso 1.000000     C
    C   1.0     0.473285     0.353338     0.053117  Biso 1.000000     C
    C   1.0     0.645408     0.281778     0.904808  Biso 1.000000     C
    C   1.0     0.616600     0.558314     0.312768  Biso 1.000000     C
    C   1.0     0.556116     0.484738     0.295555  Biso 1.000000     C
    C   1.0     0.469175     0.496186     0.252605  Biso 1.000000     C
    C   1.0     0.446284     0.581364     0.228736  Biso 1.000000     C
    C   1.0     0.509437     0.651796     0.248605  Biso 1.000000     C
    C   1.0     0.404478     0.418548     0.228572  Biso 1.000000     C
    C   1.0     0.573452     0.709484     0.475669  Biso 1.000000     C
    C   1.0     0.503959     0.708606     0.530747  Biso 1.000000     C
    C   1.0     0.440922     0.782826     0.542437  Biso 1.000000     C
    C   1.0     0.454365     0.857045     0.500382  Biso 1.000000     C
    C   1.0     0.526579     0.853418     0.447043  Biso 1.000000     C
    C   1.0     0.354575     0.781701     0.595210  Biso 1.000000     C
    C   1.0     0.073731     0.790154     0.524894  Biso 1.000000     C
    C   1.0     0.003873     0.791175     0.469977  Biso 1.000000     C
    C   1.0     0.940847     0.716956     0.458256  Biso 1.000000     C
    C   1.0     0.954555     0.642650     0.500197  Biso 1.000000     C
    C   1.0     0.027038     0.646184     0.553444  Biso 1.000000     C
    C   1.0     0.854268     0.718190     0.405573  Biso 1.000000     C
    C   1.0     0.117007     0.941706     0.687355  Biso 1.000000     C
    C   1.0     0.056571     0.000000     0.704321  Biso 1.000000     C
    C   1.0    -0.030630     0.000000     0.747018  Biso 1.000000     C
    C   1.0     0.946252     0.919055     0.770982  Biso 1.000000     C
    C   1.0     0.009461     0.848519     0.751418  Biso 1.000000     C
    C   1.0     0.904651     0.081865     0.770728  Biso 1.000000     C
    C   1.0     0.926371     0.290388     0.975332  Biso 1.000000     C
    C   1.0     0.996136     0.291291     0.030294  Biso 1.000000     C
    C   1.0     0.059070     0.217005     0.041876  Biso 1.000000     C
    C   1.0     0.045301     0.142736     0.999760  Biso 1.000000     C
    C   1.0     0.972915     0.146380     0.946468  Biso 1.000000     C
    C   1.0     0.145619     0.218117     0.094596  Biso 1.000000     C
    C   1.0     0.883053     0.441920     0.812688  Biso 1.000000     C
    C   1.0     0.943384     0.515567     0.795651  Biso 1.000000     C
    C   1.0     0.000000     0.504166     0.752920  Biso 1.000000     C
    C   1.0     0.053688     0.419016     0.728937  Biso 1.000000     C
    C   1.0     0.990589     0.348526     0.748576  Biso 1.000000     C
    C   1.0     0.095185     0.581871     0.729187  Biso 1.000000     C
    C   1.0     0.616460     0.941909     0.812822  Biso 1.000000     C
    C   1.0     0.556089     0.000000     0.795544  Biso 1.000000     C
    C   1.0     0.469140     0.000000     0.752592  Biso 1.000000     C
    C   1.0     0.446233     0.918687     0.728699  Biso 1.000000     C
    C   1.0     0.509284     0.848272     0.748625  Biso 1.000000     C
    C   1.0     0.404531     0.081516     0.728530  Biso 1.000000     C
    C   1.0     0.573346     0.790666     0.975849  Biso 1.000000     C
    C   1.0     0.503851     0.791463     0.030904  Biso 1.000000     C
    C   1.0     0.440935     0.717179     0.042430  Biso 1.000000     C
    C   1.0     0.454478     0.642994     0.000000  Biso 1.000000     C
    C   1.0     0.526701     0.646702     0.946890  Biso 1.000000     C
    C   1.0     0.354564     0.718260     0.095194  Biso 1.000000     C
    C   1.0     0.383373     0.441730     0.687225  Biso 1.000000     C
    C   1.0     0.443859     0.515302     0.704442  Biso 1.000000     C
    C   1.0     0.530797     0.503851     0.747394  Biso 1.000000     C
    C   1.0     0.553686     0.418670     0.771259  Biso 1.000000     C
    C   1.0     0.490531     0.348240     0.751386  Biso 1.000000     C
    C   1.0     0.595495     0.581483     0.771437  Biso 1.000000     C
    C   1.0     0.426508     0.290556     0.524320  Biso 1.000000     C
    C   1.0     0.496007     0.291433     0.469244  Biso 1.000000     C
    C   1.0     0.559050     0.217215     0.457562  Biso 1.000000     C
    C   1.0     0.545624     0.143006     0.499628  Biso 1.000000     C
    C   1.0     0.473404     0.146634     0.552964  Biso 1.000000     C
    C   1.0     0.645401     0.218337     0.404791  Biso 1.000000     C
    C   1.0     0.926244     0.209887     0.475079  Biso 1.000000     C
    C   1.0     0.996112     0.208861     0.529990  Biso 1.000000     C
    C   1.0     0.059120     0.283088     0.541723  Biso 1.000000     C
    C   1.0     0.045400     0.357400     0.499790  Biso 1.000000     C
    C   1.0     0.972910     0.353871     0.446547  Biso 1.000000     C
    C   1.0     0.145700     0.281844     0.594404  Biso 1.000000     C
    C   1.0     0.882964     0.058335     0.312641  Biso 1.000000     C
    C   1.0     0.943398    -0.015352     0.295676  Biso 1.000000     C
    C   1.0     0.000000    -0.004088     0.252982  Biso 1.000000     C
    C   1.0     0.053718     0.080979     0.229011  Biso 1.000000     C
    C   1.0     0.990512     0.151518     0.248575  Biso 1.000000     C
    C   1.0     0.095317     0.918168     0.229275  Biso 1.000000     C
    C   1.0     0.073622     0.709672     0.024646  Biso 1.000000     C
    C   1.0     0.003848     0.708765     0.969688  Biso 1.000000     C
    C   1.0     0.940904     0.783046     0.958110  Biso 1.000000     C
    C   1.0     0.954632     0.857297     0.000251  Biso 1.000000     C
    C   1.0     0.027029     0.853659     0.053538  Biso 1.000000     C
    C   1.0     0.854340     0.781924     0.905399  Biso 1.000000     C
    C   1.0     0.116915     0.558119     0.187301  Biso 1.000000     C
    C   1.0     0.056589     0.484470     0.204342  Biso 1.000000     C
    C   1.0    -0.030597     0.495873     0.247059  Biso 1.000000     C
    C   1.0     0.946274     0.581023     0.271046  Biso 1.000000     C
    C   1.0     0.009369     0.651514     0.251405  Biso 1.000000     C
    C   1.0     0.904776     0.418165     0.270792  Biso 1.000000     C
    N   1.0     0.406537     0.140603     0.209867  Biso 1.000000     N
    N   1.0     0.416170     0.279989     0.066293  Biso 1.000000     N
    N   1.0     0.593628     0.640710     0.290066  Biso 1.000000     N
    N   1.0     0.583784     0.780113     0.433691  Biso 1.000000     N
    N   1.0     0.084308     0.719447     0.566784  Biso 1.000000     N
    N   1.0     0.093871     0.859410     0.710178  Biso 1.000000     N
    N   1.0     0.915758     0.219712     0.933261  Biso 1.000000     N
    N   1.0     0.906224     0.359542     0.789866  Biso 1.000000     N
    N   1.0     0.593441     0.859443     0.790124  Biso 1.000000     N
    N   1.0     0.583793     0.720061     0.933702  Biso 1.000000     N
    N   1.0     0.406340     0.359331     0.709926  Biso 1.000000     N
    N   1.0     0.416189     0.219935     0.566307  Biso 1.000000     N
    N   1.0     0.915653     0.280603     0.433199  Biso 1.000000     N
    N   1.0     0.906097     0.140629     0.289811  Biso 1.000000     N
    N   1.0     0.084208     0.780335     0.066733  Biso 1.000000     N
    N   1.0     0.093740     0.640498     0.210121  Biso 1.000000     N
    O   1.0     0.582038     0.843795     0.242076  Biso 1.000000     O
    O   1.0     0.657082     0.930110     0.321992  Biso 1.000000     O
    O   1.0     0.650116     0.214848     0.864053  Biso 1.000000     O
    O   1.0     0.711094     0.344167     0.905382  Biso 1.000000     O
    O   1.0     0.417953     0.343873     0.257896  Biso 1.000000     O
    O   1.0     0.342776     0.430028     0.178097  Biso 1.000000     O
    O   1.0     0.349969     0.714810     0.635869  Biso 1.000000     O
    O   1.0     0.288826     0.844049     0.594730  Biso 1.000000     O
    O   1.0     0.848686     0.785796     0.365686  Biso 1.000000     O
    O   1.0     0.789386     0.655246     0.405343  Biso 1.000000     O
    O   1.0     0.919942     0.156810     0.742263  Biso 1.000000     O
    O   1.0     0.841051     0.070196     0.820118  Biso 1.000000     O
    O   1.0     0.151212     0.285629     0.134727  Biso 1.000000     O
    O   1.0     0.210535     0.155179     0.094590  Biso 1.000000     O
    O   1.0     0.080121     0.656839     0.757820  Biso 1.000000     O
    O   1.0     0.158563     0.570111     0.679650  Biso 1.000000     O
    O   1.0     0.417932     0.156249     0.757924  Biso 1.000000     O
    O   1.0     0.342878     0.069932     0.678013  Biso 1.000000     O
    O   1.0     0.349861     0.785184     0.135955  Biso 1.000000     O
    O   1.0     0.288885     0.655865     0.094627  Biso 1.000000     O
    O   1.0     0.582019     0.656163     0.742118  Biso 1.000000     O
    O   1.0     0.657194     0.569997     0.821911  Biso 1.000000     O
    O   1.0     0.650001     0.285221     0.364127  Biso 1.000000     O
    O   1.0     0.711146     0.155987     0.405273  Biso 1.000000     O
    O   1.0     0.151294     0.214218     0.634269  Biso 1.000000     O
    O   1.0     0.210562     0.344801     0.594660  Biso 1.000000     O
    O   1.0     0.080033     0.843229     0.257749  Biso 1.000000     O
    O   1.0     0.158910     0.929830     0.179879  Biso 1.000000     O
    O   1.0     0.848771     0.714433     0.865244  Biso 1.000000     O
    O   1.0     0.789405     0.844849     0.905419  Biso 1.000000     O
    O   1.0     0.919861     0.343196     0.242167  Biso 1.000000     O
    O   1.0     0.841366     0.429925     0.320313  Biso 1.000000     O
   Cd   1.0     0.679586     0.767981     0.329551  Biso 1.000000    Cd
   Cd   1.0     0.320501     0.267756     0.170481  Biso 1.000000    Cd
   Cd   1.0     0.820108     0.232266     0.828977  Biso 1.000000    Cd
   Cd   1.0     0.179990     0.732002     0.671042  Biso 1.000000    Cd
   Cd   1.0     0.320374     0.232060     0.670441  Biso 1.000000    Cd
   Cd   1.0     0.679465     0.732287     0.829514  Biso 1.000000    Cd
   Cd   1.0     0.179861     0.767773     0.171020  Biso 1.000000    Cd
   Cd   1.0     0.819972     0.268038     0.328941  Biso 1.000000    Cd
