#======================================================================

# CRYSTAL DATA

#----------------------------------------------------------------------

data_VESTA_phase_1


_pd_phase_name                         MOF
_cell_length_a                         20.88500
_cell_length_b                         13.59200
_cell_length_c                         18.01000
_cell_angle_alpha                      90.00100
_cell_angle_beta                       106.87400
_cell_angle_gamma                      90.00000
_symmetry_space_group_name_H-M         "P 1"
_symmetry_Int_Tables_number            1

loop_
_symmetry_equiv_pos_as_xyz
   "x, y, z"

loop_
   _atom_site_label
   _atom_site_occupancy
   _atom_site_fract_x
   _atom_site_fract_y
   _atom_site_fract_z
   _atom_site_adp_type
   _atom_site_B_iso_or_equiv
   _atom_site_type_symbol
    H   1.0     0.105214     0.611550     0.964940  Biso 1.000000     H
    H   1.0     0.605213     0.611551     0.964941  Biso 1.000000     H
    H   1.0     0.049464     0.832654     0.795555  Biso 1.000000     H
    H   1.0     0.549461     0.832654     0.795555  Biso 1.000000     H
    H   1.0     0.298349     0.685097     0.609067  Biso 1.000000     H
    H   1.0     0.798347     0.685097     0.609066  Biso 1.000000     H
    H   1.0     0.270989     0.971907     0.518768  Biso 1.000000     H
    H   1.0     0.770987     0.971907     0.518767  Biso 1.000000     H
    H   1.0     0.001256     0.335360     0.627216  Biso 1.000000     H
    H   1.0     0.501254     0.335360     0.627216  Biso 1.000000     H
    H   1.0     0.051790     0.068454     0.748603  Biso 1.000000     H
    H   1.0     0.551788     0.068454     0.748602  Biso 1.000000     H
    H   1.0     0.303828     0.390401     0.770580  Biso 1.000000     H
    H   1.0     0.803826     0.390401     0.770580  Biso 1.000000     H
    H   1.0     0.350439     0.397369     0.013486  Biso 1.000000     H
    H   1.0     0.850437     0.397370     0.013487  Biso 1.000000     H
    H   1.0     0.394788     0.111526     0.035074  Biso 1.000000     H
    H   1.0     0.894787     0.111525     0.035074  Biso 1.000000     H
    H   1.0     0.450543     0.332633     0.204462  Biso 1.000000     H
    H   1.0     0.950540     0.332633     0.204462  Biso 1.000000     H
    H   1.0     0.201664     0.185079     0.390956  Biso 1.000000     H
    H   1.0     0.701662     0.185079     0.390955  Biso 1.000000     H
    H   1.0     0.229020     0.471895     0.481253  Biso 1.000000     H
    H   1.0     0.729019     0.471895     0.481252  Biso 1.000000     H
    H   1.0     0.498750     0.835371     0.372803  Biso 1.000000     H
    H   1.0     0.998748     0.835371     0.372802  Biso 1.000000     H
    H   1.0     0.448213     0.568464     0.251411  Biso 1.000000     H
    H   1.0     0.948211     0.568464     0.251410  Biso 1.000000     H
    H   1.0     0.196174     0.890417     0.229438  Biso 1.000000     H
    H   1.0     0.696172     0.890416     0.229438  Biso 1.000000     H
    H   1.0     0.149566     0.897386     0.986531  Biso 1.000000     H
    H   1.0     0.649564     0.897385     0.986531  Biso 1.000000     H
    H   1.0     0.122734     0.111552     0.035017  Biso 1.000000     H
    H   1.0     0.622732     0.111553     0.035015  Biso 1.000000     H
    H   1.0     0.151758     0.332588     0.204465  Biso 1.000000     H
    H   1.0     0.651756     0.332587     0.204465  Biso 1.000000     H
    H   1.0     0.493881     0.185128     0.390920  Biso 1.000000     H
    H   1.0     0.993879     0.185127     0.390921  Biso 1.000000     H
    H   1.0     0.011683     0.471879     0.481342  Biso 1.000000     H
    H   1.0     0.511681     0.471880     0.481342  Biso 1.000000     H
    H   1.0     0.187687     0.835560     0.372717  Biso 1.000000     H
    H   1.0     0.687685     0.835559     0.372717  Biso 1.000000     H
    H   1.0     0.177378     0.568542     0.251445  Biso 1.000000     H
    H   1.0     0.677376     0.568542     0.251444  Biso 1.000000     H
    H   1.0     0.418512     0.890257     0.229417  Biso 1.000000     H
    H   1.0     0.918510     0.890257     0.229417  Biso 1.000000     H
    H   1.0     0.343639     0.897553     0.986503  Biso 1.000000     H
    H   1.0     0.843637     0.897552     0.986502  Biso 1.000000     H
    H   1.0     0.377269     0.611582     0.965005  Biso 1.000000     H
    H   1.0     0.877267     0.611580     0.965003  Biso 1.000000     H
    H   1.0     0.348249     0.832598     0.795548  Biso 1.000000     H
    H   1.0     0.848247     0.832599     0.795548  Biso 1.000000     H
    H   1.0     0.006126     0.685141     0.609094  Biso 1.000000     H
    H   1.0     0.506124     0.685142     0.609094  Biso 1.000000     H
    H   1.0     0.488326     0.971891     0.518674  Biso 1.000000     H
    H   1.0     0.988324     0.971890     0.518674  Biso 1.000000     H
    H   1.0     0.312319     0.335547     0.627297  Biso 1.000000     H
    H   1.0     0.812317     0.335548     0.627298  Biso 1.000000     H
    H   1.0     0.322628     0.068535     0.748571  Biso 1.000000     H
    H   1.0     0.822626     0.068535     0.748570  Biso 1.000000     H
    H   1.0     0.081491     0.390258     0.770601  Biso 1.000000     H
    H   1.0     0.581489     0.390258     0.770601  Biso 1.000000     H
    H   1.0     0.156366     0.397532     0.013515  Biso 1.000000     H
    H   1.0     0.656364     0.397532     0.013515  Biso 1.000000     H
    H   1.0     0.177659     0.347948     0.710736  Biso 1.000000     H
    H   1.0     0.677657     0.347948     0.710735  Biso 1.000000     H
    H   1.0     0.137262     0.578832     0.549528  Biso 1.000000     H
    H   1.0     0.637261     0.578833     0.549527  Biso 1.000000     H
    H   1.0     0.322346     0.847957     0.289282  Biso 1.000000     H
    H   1.0     0.822344     0.847956     0.289281  Biso 1.000000     H
    H   1.0     0.362744     0.078823     0.450491  Biso 1.000000     H
    H   1.0     0.862742     0.078822     0.450491  Biso 1.000000     H
    H   1.0     0.011821     0.017545     0.047385  Biso 1.000000     H
    H   1.0     0.511819     0.017545     0.047385  Biso 1.000000     H
    H   1.0     0.451535     0.979315     0.806136  Biso 1.000000     H
    H   1.0     0.951533     0.979316     0.806136  Biso 1.000000     H
    H   1.0     0.488180     0.517562     0.952631  Biso 1.000000     H
    H   1.0     0.988178     0.517562     0.952631  Biso 1.000000     H
    H   1.0     0.048473     0.479300     0.193880  Biso 1.000000     H
    H   1.0     0.548470     0.479300     0.193880  Biso 1.000000     H
    C   1.0     0.101767     0.657490     0.914755  Biso 1.000000     C
    C   1.0     0.601765     0.657490     0.914756  Biso 1.000000     C
    C   1.0     0.073225     0.769429     0.829079  Biso 1.000000     C
    C   1.0     0.573223     0.769430     0.829079  Biso 1.000000     C
    C   1.0     0.281530     0.760627     0.597487  Biso 1.000000     C
    C   1.0     0.781528     0.760627     0.597486  Biso 1.000000     C
    C   1.0     0.268160     0.905876     0.551505  Biso 1.000000     C
    C   1.0     0.768158     0.905876     0.551505  Biso 1.000000     C
    C   1.0     0.024442     0.265343     0.648487  Biso 1.000000     C
    C   1.0     0.524440     0.265343     0.648487  Biso 1.000000     C
    C   1.0     0.049248     0.129863     0.709368  Biso 1.000000     C
    C   1.0     0.549247     0.129863     0.709368  Biso 1.000000     C
    C   1.0     0.329084     0.380719     0.831815  Biso 1.000000     C
    C   1.0     0.829082     0.380719     0.831815  Biso 1.000000     C
    C   1.0     0.352614     0.384661     0.954773  Biso 1.000000     C
    C   1.0     0.852612     0.384662     0.954773  Biso 1.000000     C
    C   1.0     0.398236     0.157467     0.085259  Biso 1.000000     C
    C   1.0     0.898235     0.157466     0.085259  Biso 1.000000     C
    C   1.0     0.426781     0.269408     0.170937  Biso 1.000000     C
    C   1.0     0.926779     0.269408     0.170937  Biso 1.000000     C
    C   1.0     0.218482     0.260611     0.402535  Biso 1.000000     C
    C   1.0     0.718480     0.260611     0.402535  Biso 1.000000     C
    C   1.0     0.231850     0.405862     0.448516  Biso 1.000000     C
    C   1.0     0.731848     0.405862     0.448515  Biso 1.000000     C
    C   1.0     0.475564     0.765354     0.351530  Biso 1.000000     C
    C   1.0     0.975562     0.765354     0.351530  Biso 1.000000     C
    C   1.0     0.450755     0.629874     0.290647  Biso 1.000000     C
    C   1.0     0.950754     0.629874     0.290646  Biso 1.000000     C
    C   1.0     0.170919     0.880731     0.168203  Biso 1.000000     C
    C   1.0     0.670917     0.880730     0.168203  Biso 1.000000     C
    C   1.0     0.147391     0.884664     0.045245  Biso 1.000000     C
    C   1.0     0.647389     0.884663     0.045245  Biso 1.000000     C
    C   1.0     0.144401     0.157468     0.085220  Biso 1.000000     C
    C   1.0     0.644400     0.157468     0.085218  Biso 1.000000     C
    C   1.0     0.158737     0.269373     0.170932  Biso 1.000000     C
    C   1.0     0.658736     0.269372     0.170931  Biso 1.000000     C
    C   1.0     0.482850     0.260648     0.402520  Biso 1.000000     C
    C   1.0     0.982848     0.260647     0.402521  Biso 1.000000     C
    C   1.0     0.492473     0.405871     0.448568  Biso 1.000000     C
    C   1.0     0.992471     0.405871     0.448568  Biso 1.000000     C
    C   1.0     0.200200     0.765504     0.351485  Biso 1.000000     C
    C   1.0     0.700198     0.765503     0.351485  Biso 1.000000     C
    C   1.0     0.194491     0.629962     0.290666  Biso 1.000000     C
    C   1.0     0.694489     0.629962     0.290665  Biso 1.000000     C
    C   1.0     0.413147     0.880649     0.168182  Biso 1.000000     C
    C   1.0     0.913145     0.880649     0.168181  Biso 1.000000     C
    C   1.0     0.375194     0.884745     0.045220  Biso 1.000000     C
    C   1.0     0.875192     0.884744     0.045219  Biso 1.000000     C
    C   1.0     0.355602     0.657492     0.914800  Biso 1.000000     C
    C   1.0     0.855601     0.657491     0.914799  Biso 1.000000     C
    C   1.0     0.341269     0.769387     0.829084  Biso 1.000000     C
    C   1.0     0.841267     0.769388     0.829083  Biso 1.000000     C
    C   1.0     0.017158     0.760660     0.597494  Biso 1.000000     C
    C   1.0     0.517156     0.760661     0.597494  Biso 1.000000     C
    C   1.0     0.007536     0.905882     0.551448  Biso 1.000000     C
    C   1.0     0.507535     0.905883     0.551448  Biso 1.000000     C
    C   1.0     0.299806     0.265492     0.648530  Biso 1.000000     C
    C   1.0     0.799804     0.265493     0.648530  Biso 1.000000     C
    C   1.0     0.305515     0.129954     0.709350  Biso 1.000000     C
    C   1.0     0.805513     0.129954     0.709350  Biso 1.000000     C
    C   1.0     0.086857     0.380648     0.831836  Biso 1.000000     C
    C   1.0     0.586855     0.380648     0.831835  Biso 1.000000     C
    C   1.0     0.124811     0.384742     0.954798  Biso 1.000000     C
    C   1.0     0.624809     0.384743     0.954798  Biso 1.000000     C
    C   1.0     0.171132     0.420689     0.684714  Biso 1.000000     C
    C   1.0     0.671130     0.420689     0.684713  Biso 1.000000     C
    C   1.0     0.150723     0.537148     0.603287  Biso 1.000000     C
    C   1.0     0.650722     0.537149     0.603287  Biso 1.000000     C
    C   1.0     0.328874     0.920699     0.315305  Biso 1.000000     C
    C   1.0     0.828872     0.920699     0.315304  Biso 1.000000     C
    C   1.0     0.349282     0.037137     0.396732  Biso 1.000000     C
    C   1.0     0.849281     0.037136     0.396731  Biso 1.000000     C
    C   1.0     0.496337     0.031992     0.985461  Biso 1.000000     C
    C   1.0     0.996335     0.031992     0.985461  Biso 1.000000     C
    C   1.0     0.465911     0.011917     0.863674  Biso 1.000000     C
    C   1.0     0.965909     0.011917     0.863674  Biso 1.000000     C
    C   1.0     0.003665     0.531994     0.014555  Biso 1.000000     C
    C   1.0     0.503663     0.531994     0.014555  Biso 1.000000     C
    C   1.0     0.034094     0.511924     0.136342  Biso 1.000000     C
    C   1.0     0.534092     0.511924     0.136342  Biso 1.000000     C
    N   1.0     0.139343     0.644995     0.866991  Biso 1.000000     N
    N   1.0     0.639341     0.644996     0.866991  Biso 1.000000     N
    N   1.0     0.120990     0.717421     0.811370  Biso 1.000000     N
    N   1.0     0.620988     0.717422     0.811370  Biso 1.000000     N
    N   1.0     0.059185     0.734597     0.893447  Biso 1.000000     N
    N   1.0     0.559183     0.734597     0.893447  Biso 1.000000     N
    N   1.0     0.238187     0.804709     0.628593  Biso 1.000000     N
    N   1.0     0.738185     0.804709     0.628593  Biso 1.000000     N
    N   1.0     0.229620     0.898782     0.598743  Biso 1.000000     N
    N   1.0     0.729618     0.898782     0.598742  Biso 1.000000     N
    N   1.0     0.301965     0.821274     0.548916  Biso 1.000000     N
    N   1.0     0.801963     0.821274     0.548915  Biso 1.000000     N
    N   1.0     0.072082     0.223902     0.622942  Biso 1.000000     N
    N   1.0     0.572080     0.223903     0.622941  Biso 1.000000     N
    N   1.0     0.087623     0.136103     0.662045  Biso 1.000000     N
    N   1.0     0.587621     0.136104     0.662045  Biso 1.000000     N
    N   1.0     0.008320     0.209220     0.703160  Biso 1.000000     N
    N   1.0     0.508318     0.209220     0.703160  Biso 1.000000     N
    N   1.0     0.387714     0.334982     0.858858  Biso 1.000000     N
    N   1.0     0.887712     0.334983     0.858858  Biso 1.000000     N
    N   1.0     0.403150     0.337643     0.938606  Biso 1.000000     N
    N   1.0     0.903148     0.337643     0.938606  Biso 1.000000     N
    N   1.0     0.304889     0.413344     0.889567  Biso 1.000000     N
    N   1.0     0.804887     0.413345     0.889567  Biso 1.000000     N
    N   1.0     0.360661     0.144974     0.133024  Biso 1.000000     N
    N   1.0     0.860660     0.144973     0.133024  Biso 1.000000     N
    N   1.0     0.379015     0.217401     0.188646  Biso 1.000000     N
    N   1.0     0.879013     0.217401     0.188646  Biso 1.000000     N
    N   1.0     0.440820     0.234574     0.106568  Biso 1.000000     N
    N   1.0     0.940818     0.234574     0.106568  Biso 1.000000     N
    N   1.0     0.261824     0.304692     0.371428  Biso 1.000000     N
    N   1.0     0.761822     0.304692     0.371427  Biso 1.000000     N
    N   1.0     0.270390     0.398767     0.401278  Biso 1.000000     N
    N   1.0     0.770388     0.398767     0.401278  Biso 1.000000     N
    N   1.0     0.198046     0.321259     0.451106  Biso 1.000000     N
    N   1.0     0.698045     0.321259     0.451106  Biso 1.000000     N
    N   1.0     0.427924     0.723914     0.377075  Biso 1.000000     N
    N   1.0     0.927922     0.723914     0.377075  Biso 1.000000     N
    N   1.0     0.412381     0.636115     0.337970  Biso 1.000000     N
    N   1.0     0.912380     0.636114     0.337969  Biso 1.000000     N
    N   1.0     0.491685     0.709231     0.296856  Biso 1.000000     N
    N   1.0     0.991683     0.709231     0.296855  Biso 1.000000     N
    N   1.0     0.112289     0.834993     0.141159  Biso 1.000000     N
    N   1.0     0.612287     0.834993     0.141160  Biso 1.000000     N
    N   1.0     0.096854     0.837648     0.061411  Biso 1.000000     N
    N   1.0     0.596852     0.837647     0.061411  Biso 1.000000     N
    N   1.0     0.195115     0.913351     0.110451  Biso 1.000000     N
    N   1.0     0.695113     0.913351     0.110451  Biso 1.000000     N
    N   1.0     0.205879     0.144952     0.133000  Biso 1.000000     N
    N   1.0     0.705878     0.144952     0.132998  Biso 1.000000     N
    N   1.0     0.215360     0.217351     0.188642  Biso 1.000000     N
    N   1.0     0.715358     0.217350     0.188641  Biso 1.000000     N
    N   1.0     0.112489     0.234565     0.106543  Biso 1.000000     N
    N   1.0     0.612487     0.234565     0.106542  Biso 1.000000     N
    N   1.0     0.423937     0.304734     0.371417  Biso 1.000000     N
    N   1.0     0.923935     0.304734     0.371417  Biso 1.000000     N
    N   1.0     0.430294     0.398786     0.401308  Biso 1.000000     N
    N   1.0     0.930292     0.398786     0.401307  Biso 1.000000     N
    N   1.0     0.027582     0.321280     0.451129  Biso 1.000000     N
    N   1.0     0.527580     0.321281     0.451129  Biso 1.000000     N
    N   1.0     0.260608     0.724010     0.377058  Biso 1.000000     N
    N   1.0     0.760606     0.724009     0.377057  Biso 1.000000     N
    N   1.0     0.256553     0.636176     0.337997  Biso 1.000000     N
    N   1.0     0.756551     0.636176     0.337996  Biso 1.000000     N
    N   1.0     0.156701     0.709373     0.296831  Biso 1.000000     N
    N   1.0     0.656699     0.709373     0.296831  Biso 1.000000     N
    N   1.0     0.458231     0.834897     0.141138  Biso 1.000000     N
    N   1.0     0.958229     0.834897     0.141138  Biso 1.000000     N
    N   1.0     0.433797     0.837656     0.061387  Biso 1.000000     N
    N   1.0     0.933795     0.837656     0.061386  Biso 1.000000     N
    N   1.0     0.360083     0.913374     0.110422  Biso 1.000000     N
    N   1.0     0.860081     0.913374     0.110422  Biso 1.000000     N
    N   1.0     0.294125     0.644973     0.867020  Biso 1.000000     N
    N   1.0     0.794123     0.644973     0.867019  Biso 1.000000     N
    N   1.0     0.284645     0.717366     0.811375  Biso 1.000000     N
    N   1.0     0.784643     0.717366     0.811374  Biso 1.000000     N
    N   1.0     0.387516     0.734585     0.893475  Biso 1.000000     N
    N   1.0     0.887514     0.734585     0.893474  Biso 1.000000     N
    N   1.0     0.076071     0.804747     0.628597  Biso 1.000000     N
    N   1.0     0.576070     0.804747     0.628597  Biso 1.000000     N
    N   1.0     0.069716     0.898797     0.598707  Biso 1.000000     N
    N   1.0     0.569714     0.898798     0.598706  Biso 1.000000     N
    N   1.0     0.472426     0.821294     0.548887  Biso 1.000000     N
    N   1.0     0.972424     0.821293     0.548887  Biso 1.000000     N
    N   1.0     0.239398     0.223999     0.622960  Biso 1.000000     N
    N   1.0     0.739396     0.224000     0.622960  Biso 1.000000     N
    N   1.0     0.243452     0.136168     0.662022  Biso 1.000000     N
    N   1.0     0.743451     0.136168     0.662021  Biso 1.000000     N
    N   1.0     0.343306     0.209363     0.703184  Biso 1.000000     N
    N   1.0     0.843304     0.209364     0.703183  Biso 1.000000     N
    N   1.0     0.041773     0.334895     0.858879  Biso 1.000000     N
    N   1.0     0.541771     0.334895     0.858878  Biso 1.000000     N
    N   1.0     0.066208     0.337652     0.938631  Biso 1.000000     N
    N   1.0     0.566206     0.337653     0.938630  Biso 1.000000     N
    N   1.0     0.139921     0.413374     0.889596  Biso 1.000000     N
    N   1.0     0.639919     0.413374     0.889596  Biso 1.000000     N
    N   1.0     0.181438     0.504108     0.726008  Biso 1.000000     N
    N   1.0     0.681436     0.504108     0.726008  Biso 1.000000     N
    N   1.0     0.168182     0.580524     0.673110  Biso 1.000000     N
    N   1.0     0.668180     0.580525     0.673109  Biso 1.000000     N
    N   1.0     0.151764     0.437019     0.607320  Biso 1.000000     N
    N   1.0     0.651763     0.437019     0.607319  Biso 1.000000     N
    N   1.0     0.318567     0.004091     0.274011  Biso 1.000000     N
    N   1.0     0.818565     0.004091     0.274010  Biso 1.000000     N
    N   1.0     0.331824     0.080510     0.326909  Biso 1.000000     N
    N   1.0     0.831822     0.080510     0.326909  Biso 1.000000     N
    N   1.0     0.348242     0.937032     0.392699  Biso 1.000000     N
    N   1.0     0.848240     0.937031     0.392698  Biso 1.000000     N
    N   1.0     0.468955     0.109332     0.875785  Biso 1.000000     N
    N   1.0     0.968953     0.109332     0.875784  Biso 1.000000     N
    N   1.0     0.488842     0.122603     0.955398  Biso 1.000000     N
    N   1.0     0.988840     0.122603     0.955397  Biso 1.000000     N
    N   1.0     0.482640     0.960044     0.930682  Biso 1.000000     N
    N   1.0     0.982638     0.960044     0.930682  Biso 1.000000     N
    N   1.0     0.031052     0.609339     0.124231  Biso 1.000000     N
    N   1.0     0.531050     0.609338     0.124231  Biso 1.000000     N
    N   1.0     0.011163     0.622606     0.044619  Biso 1.000000     N
    N   1.0     0.511161     0.622606     0.044618  Biso 1.000000     N
    N   1.0     0.017364     0.460024     0.069334  Biso 1.000000     N
    N   1.0     0.517362     0.460024     0.069334  Biso 1.000000     N
   Cl   1.0     0.193720     0.941143     0.774831  Biso 1.000000    Cl
   Cl   1.0     0.693718     0.941143     0.774831  Biso 1.000000    Cl
   Cl   1.0     0.120603     0.087463     0.482282  Biso 1.000000    Cl
   Cl   1.0     0.620601     0.087463     0.482281  Biso 1.000000    Cl
   Cl   1.0     0.306285     0.441124     0.225186  Biso 1.000000    Cl
   Cl   1.0     0.806283     0.441124     0.225186  Biso 1.000000    Cl
   Cl   1.0     0.379404     0.587478     0.517735  Biso 1.000000    Cl
   Cl   1.0     0.879402     0.587477     0.517735  Biso 1.000000    Cl
   Cd   1.0     0.214482     0.523641     0.857984  Biso 1.000000    Cd
   Cd   1.0     0.714480     0.523641     0.857984  Biso 1.000000    Cd
   Cd   1.0     0.179282     0.756012     0.717238  Biso 1.000000    Cd
   Cd   1.0     0.679280     0.756013     0.717237  Biso 1.000000    Cd
   Cd   1.0     0.157581     0.015163     0.630284  Biso 1.000000    Cd
   Cd   1.0     0.657580     0.015163     0.630283  Biso 1.000000    Cd
   Cd   1.0     0.132885     0.273684     0.531420  Biso 1.000000    Cd
   Cd   1.0     0.632883     0.273685     0.531420  Biso 1.000000    Cd
   Cd   1.0     0.285523     0.023621     0.142034  Biso 1.000000    Cd
   Cd   1.0     0.785520     0.023620     0.142034  Biso 1.000000    Cd
   Cd   1.0     0.320724     0.255996     0.282779  Biso 1.000000    Cd
   Cd   1.0     0.820723     0.255995     0.282779  Biso 1.000000    Cd
   Cd   1.0     0.342425     0.515173     0.369734  Biso 1.000000    Cd
   Cd   1.0     0.842423     0.515173     0.369733  Biso 1.000000    Cd
   Cd   1.0     0.367121     0.773698     0.468597  Biso 1.000000    Cd
   Cd   1.0     0.867120     0.773697     0.468597  Biso 1.000000    Cd
   Cd   1.0     0.447954     0.241485     0.791678  Biso 1.000000    Cd
   Cd   1.0     0.947952     0.241486     0.791678  Biso 1.000000    Cd
   Cd   1.0     0.052051     0.741494     0.208339  Biso 1.000000    Cd
   Cd   1.0     0.552049     0.741494     0.208339  Biso 1.000000    Cd
   Cd   1.0     0.493089     0.787098     0.972408  Biso 1.000000    Cd
   Cd   1.0     0.993087     0.787098     0.972408  Biso 1.000000    Cd
   Cd   1.0     0.006916     0.287076     0.027609  Biso 1.000000    Cd
   Cd   1.0     0.506914     0.287076     0.027608  Biso 1.000000    Cd
