#======================================================================

# CRYSTAL DATA

#----------------------------------------------------------------------

data_VESTA_phase_1


_pd_phase_name                         MOF
_cell_length_a                         14.58400
_cell_length_b                         18.82000
_cell_length_c                         20.51900
_cell_angle_alpha                      106.98300
_cell_angle_beta                       90.00000
_cell_angle_gamma                      90.00000
_symmetry_space_group_name_H-M         "P 1"
_symmetry_Int_Tables_number            1

loop_
_symmetry_equiv_pos_as_xyz
   "x, y, z"

loop_
   _atom_site_label
   _atom_site_occupancy
   _atom_site_fract_x
   _atom_site_fract_y
   _atom_site_fract_z
   _atom_site_adp_type
   _atom_site_B_iso_or_equiv
   _atom_site_type_symbol
    H   1.0     0.469187     0.592672     0.166663  Biso 1.000000     H
    H   1.0     0.000000     0.602843     0.160578  Biso 1.000000     H
    H   1.0     0.073110     0.622279     0.277948  Biso 1.000000     H
    H   1.0     0.545275     0.614239     0.278359  Biso 1.000000     H
    H   1.0     0.310930     0.519371     0.350952  Biso 1.000000     H
    H   1.0     0.810796     0.529960     0.329054  Biso 1.000000     H
    H   1.0     0.235643     0.500464     0.240332  Biso 1.000000     H
    H   1.0     0.754367     0.514496     0.212821  Biso 1.000000     H
    H   1.0     0.433161     0.715499     0.382500  Biso 1.000000     H
    H   1.0     0.903604     0.717856     0.377822  Biso 1.000000     H
    H   1.0    -0.025510     0.845806     0.412944  Biso 1.000000     H
    H   1.0     0.514932     0.835558     0.419815  Biso 1.000000     H
    H   1.0     0.224356     0.767039     0.479145  Biso 1.000000     H
    H   1.0     0.740387     0.730207     0.489375  Biso 1.000000     H
    H   1.0     0.164068     0.639788     0.446854  Biso 1.000000     H
    H   1.0     0.659146     0.610810     0.454727  Biso 1.000000     H
    H   1.0     0.511420     0.909686     0.344063  Biso 1.000000     H
    H   1.0     0.965616     0.925318     0.340361  Biso 1.000000     H
    H   1.0     0.052595     0.904017     0.228890  Biso 1.000000     H
    H   1.0     0.566938     0.890482     0.226654  Biso 1.000000     H
    H   1.0     0.314377     0.981999     0.175912  Biso 1.000000     H
    H   1.0     0.806788     0.996648     0.155160  Biso 1.000000     H
    H   1.0     0.258545     0.997534     0.292298  Biso 1.000000     H
    H   1.0     0.731210     0.000000     0.265685  Biso 1.000000     H
    H   1.0     0.408390     0.796080     0.126075  Biso 1.000000     H
    H   1.0     0.928544     0.802548     0.125028  Biso 1.000000     H
    H   1.0     0.018459     0.681449     0.086914  Biso 1.000000     H
    H   1.0     0.468960     0.668199     0.090782  Biso 1.000000     H
    H   1.0     0.245234     0.784218     0.016181  Biso 1.000000     H
    H   1.0     0.719293     0.747518     0.025766  Biso 1.000000     H
    H   1.0     0.166322     0.904673     0.051608  Biso 1.000000     H
    H   1.0     0.658812     0.875009     0.058517  Biso 1.000000     H
    H   1.0    -0.011664     0.373392     0.849776  Biso 1.000000     H
    H   1.0     0.524378     0.386711     0.845132  Biso 1.000000     H
    H   1.0     0.448318     0.365077     0.733400  Biso 1.000000     H
    H   1.0     0.922805     0.353084     0.732060  Biso 1.000000     H
    H   1.0     0.185703     0.444893     0.681378  Biso 1.000000     H
    H   1.0     0.684790     0.456199     0.659597  Biso 1.000000     H
    H   1.0     0.241010     0.461509     0.798037  Biso 1.000000     H
    H   1.0     0.759992     0.475180     0.770317  Biso 1.000000     H
    H   1.0     0.090601     0.257883     0.631737  Biso 1.000000     H
    H   1.0     0.560773     0.262557     0.629350  Biso 1.000000     H
    H   1.0     0.479728     0.142215     0.591029  Biso 1.000000     H
    H   1.0     0.000000     0.130394     0.596403  Biso 1.000000     H
    H   1.0     0.255035     0.247178     0.520279  Biso 1.000000     H
    H   1.0     0.769032     0.211431     0.531409  Biso 1.000000     H
    H   1.0     0.335442     0.367014     0.556154  Biso 1.000000     H
    H   1.0     0.830997     0.338391     0.563832  Biso 1.000000     H
    H   1.0     0.026842     0.053989     0.669254  Biso 1.000000     H
    H   1.0     0.477701     0.064222     0.664133  Biso 1.000000     H
    H   1.0     0.421452     0.083604     0.781404  Biso 1.000000     H
    H   1.0     0.939515     0.075044     0.780631  Biso 1.000000     H
    H   1.0     0.185213    -0.017596     0.854452  Biso 1.000000     H
    H   1.0     0.674359    -0.006555     0.833232  Biso 1.000000     H
    H   1.0     0.261223    -0.035941     0.744173  Biso 1.000000     H
    H   1.0     0.730772    -0.022299     0.717110  Biso 1.000000     H
    H   1.0     0.063292     0.176057     0.885254  Biso 1.000000     H
    H   1.0     0.581241     0.180027     0.880273  Biso 1.000000     H
    H   1.0     0.522552     0.308450     0.916252  Biso 1.000000     H
    H   1.0     0.973529     0.297145     0.924695  Biso 1.000000     H
    H   1.0     0.272881     0.231519     0.984471  Biso 1.000000     H
    H   1.0     0.747069     0.193349     0.994755  Biso 1.000000     H
    H   1.0     0.331782     0.103691     0.951608  Biso 1.000000     H
    H   1.0     0.825987     0.072829     0.958070  Biso 1.000000     H
    C   1.0     0.299914     0.535181     0.129529  Biso 1.000000     C
    C   1.0     0.838691     0.546492     0.109151  Biso 1.000000     C
    C   1.0     0.346226     0.546628     0.196725  Biso 1.000000     C
    C   1.0     0.875992     0.558163     0.179243  Biso 1.000000     C
    C   1.0     0.434251     0.578060     0.207844  Biso 1.000000     C
    C   1.0     0.963464     0.587905     0.197886  Biso 1.000000     C
    C   1.0     0.477091     0.589609     0.270706  Biso 1.000000     C
    C   1.0     0.995073     0.598052     0.263943  Biso 1.000000     C
    C   1.0     0.433513     0.569929     0.323996  Biso 1.000000     C
    C   1.0     0.941131     0.577868     0.312558  Biso 1.000000     C
    C   1.0     0.346399     0.537136     0.311943  Biso 1.000000     C
    C   1.0     0.854386     0.547046     0.293373  Biso 1.000000     C
    C   1.0     0.303215     0.525891     0.249200  Biso 1.000000     C
    C   1.0     0.822107     0.537933     0.227561  Biso 1.000000     C
    C   1.0     0.486166     0.579692     0.391532  Biso 1.000000     C
    C   1.0     0.982535     0.589779     0.384185  Biso 1.000000     C
    C   1.0     0.419855     0.580621     0.451702  Biso 1.000000     C
    C   1.0     0.911855     0.584090     0.439738  Biso 1.000000     C
    C   1.0     0.064891     0.526224     0.377025  Biso 1.000000     C
    C   1.0     0.550430     0.510393     0.378414  Biso 1.000000     C
    C   1.0     0.034693     0.668692     0.408663  Biso 1.000000     C
    C   1.0     0.540695     0.653255     0.413850  Biso 1.000000     C
    C   1.0     0.500759     0.718008     0.405624  Biso 1.000000     C
    C   1.0     0.971650     0.728166     0.400434  Biso 1.000000     C
    C   1.0     0.016138     0.800482     0.419841  Biso 1.000000     C
    C   1.0     0.546881     0.785663     0.426049  Biso 1.000000     C
    C   1.0     0.104386     0.814801     0.447592  Biso 1.000000     C
    C   1.0     0.634658     0.790093     0.455084  Biso 1.000000     C
    C   1.0     0.156153     0.755801     0.457042  Biso 1.000000     C
    C   1.0     0.673331     0.726391     0.465463  Biso 1.000000     C
    C   1.0     0.121678     0.683701     0.438344  Biso 1.000000     C
    C   1.0     0.626831     0.658841     0.445371  Biso 1.000000     C
    C   1.0     0.145955     0.890691     0.467106  Biso 1.000000     C
    C   1.0     0.685789     0.861962     0.473955  Biso 1.000000     C
    C   1.0     0.343981     0.966763     0.396181  Biso 1.000000     C
    C   1.0     0.795984     0.981704     0.377084  Biso 1.000000     C
    C   1.0     0.380593     0.954258     0.325755  Biso 1.000000     C
    C   1.0     0.842284     0.970466     0.309866  Biso 1.000000     C
    C   1.0     0.467974     0.924481     0.306852  Biso 1.000000     C
    C   1.0     0.930631     0.939607     0.299029  Biso 1.000000     C
    C   1.0     0.499297     0.914463     0.240746  Biso 1.000000     C
    C   1.0     0.973701     0.928243     0.236297  Biso 1.000000     C
    C   1.0     0.445154     0.934730     0.192268  Biso 1.000000     C
    C   1.0     0.930118     0.947516     0.182770  Biso 1.000000     C
    C   1.0     0.358202     0.965015     0.211522  Biso 1.000000     C
    C   1.0     0.842517     0.979478     0.194420  Biso 1.000000     C
    C   1.0     0.326264     0.974125     0.277437  Biso 1.000000     C
    C   1.0     0.799116     0.990617     0.257122  Biso 1.000000     C
    C   1.0     0.487221     0.924081     0.120963  Biso 1.000000     C
    C   1.0     0.983497     0.937781     0.115554  Biso 1.000000     C
    C   1.0     0.417467     0.930497     0.065159  Biso 1.000000     C
    C   1.0     0.918652     0.937660     0.054954  Biso 1.000000     C
    C   1.0     0.059563     0.000000     0.129177  Biso 1.000000     C
    C   1.0     0.558022     0.988703     0.129838  Biso 1.000000     C
    C   1.0     0.047397     0.863569     0.093109  Biso 1.000000     C
    C   1.0     0.529300     0.845501     0.095997  Biso 1.000000     C
    C   1.0     0.476564     0.785876     0.103686  Biso 1.000000     C
    C   1.0     0.995948     0.799249     0.101483  Biso 1.000000     C
    C   1.0     0.051205     0.731001     0.080569  Biso 1.000000     C
    C   1.0     0.510622     0.713646     0.084174  Biso 1.000000     C
    C   1.0     0.138667     0.725509     0.050899  Biso 1.000000     C
    C   1.0     0.599078     0.699577     0.056801  Biso 1.000000     C
    C   1.0     0.178411     0.788843     0.040525  Biso 1.000000     C
    C   1.0     0.650974     0.758686     0.047684  Biso 1.000000     C
    C   1.0     0.133251     0.856983     0.061074  Biso 1.000000     C
    C   1.0     0.616446     0.830813     0.066581  Biso 1.000000     C
    C   1.0     0.188515     0.653000     0.031494  Biso 1.000000     C
    C   1.0     0.640445     0.623661     0.037569  Biso 1.000000     C
    C   1.0     0.155322     0.431289     0.902069  Biso 1.000000     C
    C   1.0     0.694307     0.442501     0.881777  Biso 1.000000     C
    C   1.0     0.119015     0.418195     0.831492  Biso 1.000000     C
    C   1.0     0.648293     0.430903     0.814474  Biso 1.000000     C
    C   1.0     0.031834     0.388014     0.812498  Biso 1.000000     C
    C   1.0     0.559746     0.400453     0.803683  Biso 1.000000     C
    C   1.0     0.000805     0.377327     0.746209  Biso 1.000000     C
    C   1.0     0.516931     0.388918     0.740845  Biso 1.000000     C
    C   1.0     0.055064     0.397311     0.697647  Biso 1.000000     C
    C   1.0     0.561054     0.407666     0.687277  Biso 1.000000     C
    C   1.0     0.141801     0.428040     0.717020  Biso 1.000000     C
    C   1.0     0.648829     0.439286     0.698900  Biso 1.000000     C
    C   1.0     0.173444     0.437802     0.783096  Biso 1.000000     C
    C   1.0     0.691980     0.450538     0.761667  Biso 1.000000     C
    C   1.0     0.013214     0.386299     0.626182  Biso 1.000000     C
    C   1.0     0.508030     0.398237     0.620067  Biso 1.000000     C
    C   1.0     0.083916     0.391828     0.570611  Biso 1.000000     C
    C   1.0     0.573683     0.397542     0.559547  Biso 1.000000     C
    C   1.0     0.443928     0.467822     0.633387  Biso 1.000000     C
    C   1.0     0.932580     0.451096     0.634564  Biso 1.000000     C
    C   1.0     0.453471     0.324682     0.597607  Biso 1.000000     C
    C   1.0     0.959952     0.308034     0.601465  Biso 1.000000     C
    C   1.0     0.022425     0.248111     0.609312  Biso 1.000000     C
    C   1.0     0.493423     0.259924     0.605827  Biso 1.000000     C
    C   1.0     0.447735     0.192093     0.584789  Biso 1.000000     C
    C   1.0     0.977113     0.176135     0.589836  Biso 1.000000     C
    C   1.0     0.360358     0.187462     0.555091  Biso 1.000000     C
    C   1.0     0.888580     0.162739     0.562507  Biso 1.000000     C
    C   1.0     0.321706     0.251194     0.544753  Biso 1.000000     C
    C   1.0     0.837405     0.222140     0.553295  Biso 1.000000     C
    C   1.0     0.367720     0.318955     0.565521  Biso 1.000000     C
    C   1.0     0.872770     0.293965     0.572029  Biso 1.000000     C
    C   1.0     0.309483     0.115408     0.535622  Biso 1.000000     C
    C   1.0     0.846289     0.087236     0.543357  Biso 1.000000     C
    C   1.0     0.196772    -0.002403     0.632925  Biso 1.000000     C
    C   1.0     0.646584     0.009094     0.613115  Biso 1.000000     C
    C   1.0     0.150166     0.009030     0.699970  Biso 1.000000     C
    C   1.0     0.608814     0.020500     0.683089  Biso 1.000000     C
    C   1.0     0.061762     0.039763     0.710636  Biso 1.000000     C
    C   1.0     0.521012     0.049666     0.701551  Biso 1.000000     C
    C   1.0     0.018495     0.050966     0.773280  Biso 1.000000     C
    C   1.0     0.489260     0.059805     0.767606  Biso 1.000000     C
    C   1.0     0.061996     0.031550     0.826742  Biso 1.000000     C
    C   1.0     0.543436     0.040336     0.816494  Biso 1.000000     C
    C   1.0     0.149664    -0.000259     0.815237  Biso 1.000000     C
    C   1.0     0.630490     0.010051     0.797447  Biso 1.000000     C
    C   1.0     0.193283    -0.011147     0.752704  Biso 1.000000     C
    C   1.0     0.662819     0.000792     0.731628  Biso 1.000000     C
    C   1.0     0.008540     0.040549     0.893752  Biso 1.000000     C
    C   1.0     0.502409     0.052922     0.888435  Biso 1.000000     C
    C   1.0     0.073960     0.040467     0.954231  Biso 1.000000     C
    C   1.0     0.573951     0.047895     0.943551  Biso 1.000000     C
    C   1.0     0.431476    -0.010866     0.882497  Biso 1.000000     C
    C   1.0     0.932578    -0.028309     0.879200  Biso 1.000000     C
    C   1.0     0.460919     0.131813     0.912505  Biso 1.000000     C
    C   1.0     0.944606     0.114608     0.916812  Biso 1.000000     C
    C   1.0    -0.003995     0.179155     0.908936  Biso 1.000000     C
    C   1.0     0.513659     0.190871     0.903571  Biso 1.000000     C
    C   1.0     0.480575     0.263412     0.923367  Biso 1.000000     C
    C   1.0     0.940856     0.247375     0.930601  Biso 1.000000     C
    C   1.0     0.392907     0.278372     0.952016  Biso 1.000000     C
    C   1.0     0.853565     0.252582     0.960486  Biso 1.000000     C
    C   1.0     0.340687     0.219736     0.961761  Biso 1.000000     C
    C   1.0     0.813817     0.188970     0.970316  Biso 1.000000     C
    C   1.0     0.374345     0.147353     0.942760  Biso 1.000000     C
    C   1.0     0.858917     0.120827     0.949043  Biso 1.000000     C
    C   1.0     0.352637     0.354693     0.972231  Biso 1.000000     C
    C   1.0     0.804039     0.325216     0.980489  Biso 1.000000     C
    O   1.0     0.343226     0.557917     0.085498  Biso 1.000000     O
    O   1.0     0.887054     0.566731     0.065044  Biso 1.000000     O
    O   1.0     0.220611     0.503863     0.120319  Biso 1.000000     O
    O   1.0     0.759943     0.516380     0.097514  Biso 1.000000     O
    O   1.0     0.225847     0.896220     0.493045  Biso 1.000000     O
    O   1.0     0.766845     0.863874     0.499320  Biso 1.000000     O
    O   1.0     0.100503     0.945172     0.456895  Biso 1.000000     O
    O   1.0     0.644900     0.916991     0.462748  Biso 1.000000     O
    O   1.0     0.391653     0.945701     0.440089  Biso 1.000000     O
    O   1.0     0.839026     0.958379     0.420841  Biso 1.000000     O
    O   1.0     0.266297     0.998640     0.408189  Biso 1.000000     O
    O   1.0     0.716954     0.000000     0.386607  Biso 1.000000     O
    O   1.0     0.269747     0.650472     0.006366  Biso 1.000000     O
    O   1.0     0.720588     0.617875     0.012040  Biso 1.000000     O
    O   1.0     0.146254     0.598209     0.042147  Biso 1.000000     O
    O   1.0     0.594349     0.569444     0.047726  Biso 1.000000     O
    O   1.0     0.107015     0.410941     0.946130  Biso 1.000000     O
    O   1.0     0.650724     0.419851     0.925734  Biso 1.000000     O
    O   1.0     0.233244     0.462762     0.914113  Biso 1.000000     O
    O   1.0     0.773556     0.473919     0.891148  Biso 1.000000     O
    O   1.0     0.228328     0.113605     0.510526  Biso 1.000000     O
    O   1.0     0.765752     0.082317     0.518603  Biso 1.000000     O
    O   1.0     0.350931     0.060238     0.546232  Biso 1.000000     O
    O   1.0     0.892014     0.032476     0.552794  Biso 1.000000     O
    O   1.0     0.154034     0.020517     0.588788  Biso 1.000000     O
    O   1.0     0.598720     0.029869     0.569077  Biso 1.000000     O
    O   1.0     0.275919    -0.034074     0.623951  Biso 1.000000     O
    O   1.0     0.725198    -0.021266     0.601532  Biso 1.000000     O
    O   1.0     0.273041     0.360924     0.998707  Biso 1.000000     O
    O   1.0     0.722968     0.327877     0.000000  Biso 1.000000     O
    O   1.0     0.398841     0.408847     0.962060  Biso 1.000000     O
    O   1.0     0.846370     0.380016     0.969955  Biso 1.000000     O
    F   1.0     0.380744     0.513358     0.445765  Biso 1.000000     F
    F   1.0     0.879641     0.514175     0.431387  Biso 1.000000     F
    F   1.0     0.462657     0.601613     0.512811  Biso 1.000000     F
    F   1.0     0.949465     0.607564     0.502714  Biso 1.000000     F
    F   1.0     0.350376     0.629980     0.454328  Biso 1.000000     F
    F   1.0     0.837523     0.627921     0.439935  Biso 1.000000     F
    F   1.0     0.098688     0.522497     0.437646  Biso 1.000000     F
    F   1.0     0.588894     0.502240     0.436250  Biso 1.000000     F
    F   1.0     0.137877     0.535823     0.339108  Biso 1.000000     F
    F   1.0     0.620694     0.515790     0.336208  Biso 1.000000     F
    F   1.0     0.028757     0.458763     0.344864  Biso 1.000000     F
    F   1.0     0.504717     0.446748     0.347807  Biso 1.000000     F
    F   1.0     0.383560     0.000000     0.075754  Biso 1.000000     F
    F   1.0     0.878405     0.000000     0.061668  Biso 1.000000     F
    F   1.0     0.455409     0.861980     0.000000  Biso 1.000000     F
    F   1.0     0.961925     0.870446     0.000000  Biso 1.000000     F
    F   1.0     0.344392     0.884611     0.062053  Biso 1.000000     F
    F   1.0     0.850091     0.887159     0.050261  Biso 1.000000     F
    F   1.0     0.098055     0.000000     0.071591  Biso 1.000000     F
    F   1.0     0.592387     0.994718     0.070105  Biso 1.000000     F
    F   1.0     0.129202     0.999110     0.171185  Biso 1.000000     F
    F   1.0     0.630826     0.979174     0.168078  Biso 1.000000     F
    F   1.0     0.011084     0.046729     0.160098  Biso 1.000000     F
    F   1.0     0.514454     0.030998     0.162657  Biso 1.000000     F
    F   1.0     0.117975     0.461431     0.580571  Biso 1.000000     F
    F   1.0     0.612642     0.465027     0.566160  Biso 1.000000     F
    F   1.0     0.046870     0.370842     0.507376  Biso 1.000000     F
    F   1.0     0.530203     0.377233     0.498781  Biso 1.000000     F
    F   1.0     0.156286     0.345796     0.569356  Biso 1.000000     F
    F   1.0     0.643032     0.347701     0.555340  Biso 1.000000     F
    F   1.0     0.407251     0.476137     0.575104  Biso 1.000000     F
    F   1.0     0.898478     0.456213     0.574471  Biso 1.000000     F
    F   1.0     0.372894     0.462602     0.675216  Biso 1.000000     F
    F   1.0     0.859401     0.442741     0.672886  Biso 1.000000     F
    F   1.0     0.489003     0.531567     0.664435  Biso 1.000000     F
    F   1.0     0.971654     0.517340     0.667032  Biso 1.000000     F
    F   1.0     0.114435    -0.026505     0.947484  Biso 1.000000     F
    F   1.0     0.609516    -0.021339     0.933476  Biso 1.000000     F
    F   1.0     0.031143     0.107906     0.005572  Biso 1.000000     F
    F   1.0     0.537817     0.116859    -0.002564  Biso 1.000000     F
    F   1.0     0.142621     0.090975     0.958816  Biso 1.000000     F
    F   1.0     0.645683     0.094396     0.944607  Biso 1.000000     F
    F   1.0     0.397187    -0.013536     0.943338  Biso 1.000000     F
    F   1.0     0.895394    -0.038741     0.936424  Biso 1.000000     F
    F   1.0     0.358445    -0.003334     0.843694  Biso 1.000000     F
    F   1.0     0.861519    -0.020409     0.838359  Biso 1.000000     F
    F   1.0     0.474919     0.946156     0.852089  Biso 1.000000     F
    F   1.0     0.981701     0.932115     0.846479  Biso 1.000000     F
   Zn   1.0     0.322325     0.500664     0.994602  Biso 1.000000    Zn
   Zn   1.0     0.817389     0.489494     0.986235  Biso 1.000000    Zn
   Zn   1.0     0.325246     0.975288     0.529241  Biso 1.000000    Zn
   Zn   1.0     0.819921     0.965509     0.521213  Biso 1.000000    Zn
   Zn   1.0     0.175921     0.488962     0.025432  Biso 1.000000    Zn
   Zn   1.0     0.670917     0.477706     0.016999  Biso 1.000000    Zn
   Zn   1.0     0.173285     0.012228     0.488403  Biso 1.000000    Zn
   Zn   1.0     0.667796     0.002851     0.481314  Biso 1.000000    Zn
