#======================================================================

# CRYSTAL DATA

#----------------------------------------------------------------------

data_VESTA_phase_1


_pd_phase_name                         MOF
_cell_length_a                         22.76200
_cell_length_b                         13.56000
_cell_length_c                         19.94300
_cell_angle_alpha                      89.84300
_cell_angle_beta                       90.07100
_cell_angle_gamma                      90.24300
_symmetry_space_group_name_H-M         "P 1"
_symmetry_Int_Tables_number            1

loop_
_symmetry_equiv_pos_as_xyz
   "x, y, z"

loop_
   _atom_site_label
   _atom_site_occupancy
   _atom_site_fract_x
   _atom_site_fract_y
   _atom_site_fract_z
   _atom_site_adp_type
   _atom_site_B_iso_or_equiv
   _atom_site_type_symbol
    H   1.0     0.324778     0.273078     0.281231  Biso 1.000000     H
    H   1.0     0.824791     0.273079     0.281231  Biso 1.000000     H
    H   1.0     0.255923     0.257968     0.482385  Biso 1.000000     H
    H   1.0     0.755940     0.257970     0.482387  Biso 1.000000     H
    H   1.0     0.211578     0.503567     0.355359  Biso 1.000000     H
    H   1.0     0.711592     0.503567     0.355361  Biso 1.000000     H
    H   1.0     0.197487     0.508920     0.237457  Biso 1.000000     H
    H   1.0     0.697499     0.508920     0.237457  Biso 1.000000     H
    H   1.0     0.255931     0.535108     0.178573  Biso 1.000000     H
    H   1.0     0.755944     0.535109     0.178575  Biso 1.000000     H
    H   1.0     0.356101     0.544652     0.200800  Biso 1.000000     H
    H   1.0     0.856113     0.544652     0.200802  Biso 1.000000     H
    H   1.0     0.462552     0.786334     0.269574  Biso 1.000000     H
    H   1.0     0.962565     0.786332     0.269579  Biso 1.000000     H
    H   1.0     0.283009     0.758204     0.337510  Biso 1.000000     H
    H   1.0     0.783022     0.758202     0.337514  Biso 1.000000     H
    H   1.0     0.424673     0.728636     0.780230  Biso 1.000000     H
    H   1.0     0.924694     0.728645     0.780225  Biso 1.000000     H
    H   1.0     0.492403     0.740362     0.982102  Biso 1.000000     H
    H   1.0     0.992413     0.740366     0.982102  Biso 1.000000     H
    H   1.0     0.037047     0.496448     0.854751  Biso 1.000000     H
    H   1.0     0.537050     0.496442     0.854751  Biso 1.000000     H
    H   1.0     0.052313     0.494441     0.736231  Biso 1.000000     H
    H   1.0     0.552318     0.494449     0.736227  Biso 1.000000     H
    H   1.0    -0.005998     0.468718     0.676999  Biso 1.000000     H
    H   1.0     0.494006     0.468725     0.676995  Biso 1.000000     H
    H   1.0     0.393943     0.455101     0.698333  Biso 1.000000     H
    H   1.0     0.893953     0.455110     0.698342  Biso 1.000000     H
    H   1.0     0.288463     0.213755     0.770138  Biso 1.000000     H
    H   1.0     0.788474     0.213756     0.770136  Biso 1.000000     H
    H   1.0     0.468299     0.244052     0.837026  Biso 1.000000     H
    H   1.0     0.968307     0.244059     0.837035  Biso 1.000000     H
    H   1.0     0.173659     0.772946     0.215389  Biso 1.000000     H
    H   1.0     0.673671     0.772945     0.215390  Biso 1.000000     H
    H   1.0     0.242874     0.759250     0.014438  Biso 1.000000     H
    H   1.0     0.742886     0.759249     0.014438  Biso 1.000000     H
    H   1.0     0.288728     0.000000     0.141732  Biso 1.000000     H
    H   1.0     0.788739     0.000000     0.141731  Biso 1.000000     H
    H   1.0     0.302145     0.008864     0.259356  Biso 1.000000     H
    H   1.0     0.802157     0.008865     0.259355  Biso 1.000000     H
    H   1.0     0.243803     0.033667     0.318348  Biso 1.000000     H
    H   1.0     0.743815     0.033667     0.318348  Biso 1.000000     H
    H   1.0     0.143832     0.044828     0.297878  Biso 1.000000     H
    H   1.0     0.643844     0.044828     0.297879  Biso 1.000000     H
    H   1.0     0.037978     0.285612     0.228013  Biso 1.000000     H
    H   1.0     0.537988     0.285611     0.228014  Biso 1.000000     H
    H   1.0     0.216917     0.257341     0.158790  Biso 1.000000     H
    H   1.0     0.716928     0.257341     0.158791  Biso 1.000000     H
    H   1.0     0.075213     0.226352     0.715974  Biso 1.000000     H
    H   1.0     0.575226     0.226347     0.715972  Biso 1.000000     H
    H   1.0     0.005417     0.241505     0.515086  Biso 1.000000     H
    H   1.0     0.505427     0.241505     0.515086  Biso 1.000000     H
    H   1.0     0.461642    -0.005362     0.641711  Biso 1.000000     H
    H   1.0     0.961654    -0.005364     0.641711  Biso 1.000000     H
    H   1.0     0.448031     0.988662     0.759506  Biso 1.000000     H
    H   1.0     0.948039     0.988665     0.759508  Biso 1.000000     H
    H   1.0     0.506539     0.963408     0.818460  Biso 1.000000     H
    H   1.0     0.000000     0.963410     0.818460  Biso 1.000000     H
    H   1.0     0.106355     0.953369     0.797611  Biso 1.000000     H
    H   1.0     0.606366     0.953361     0.797612  Biso 1.000000     H
    H   1.0     0.212378     0.712844     0.728832  Biso 1.000000     H
    H   1.0     0.712392     0.712845     0.728823  Biso 1.000000     H
    H   1.0     0.033270     0.740622     0.659348  Biso 1.000000     H
    H   1.0     0.533282     0.740621     0.659345  Biso 1.000000     H
    C   1.0     0.268515     0.393171     0.310776  Biso 1.000000     C
    C   1.0     0.768530     0.393173     0.310777  Biso 1.000000     C
    C   1.0     0.297895     0.303941     0.321038  Biso 1.000000     C
    C   1.0     0.797909     0.303942     0.321038  Biso 1.000000     C
    C   1.0     0.292452     0.254568     0.382348  Biso 1.000000     C
    C   1.0     0.792465     0.254568     0.382348  Biso 1.000000     C
    C   1.0     0.259165     0.295212     0.434223  Biso 1.000000     C
    C   1.0     0.759182     0.295215     0.434225  Biso 1.000000     C
    C   1.0     0.230431     0.384647     0.423715  Biso 1.000000     C
    C   1.0     0.730445     0.384647     0.423716  Biso 1.000000     C
    C   1.0     0.234080     0.433657     0.361692  Biso 1.000000     C
    C   1.0     0.734093     0.433657     0.361693  Biso 1.000000     C
    C   1.0     0.323206     0.159246     0.393168  Biso 1.000000     C
    C   1.0     0.823219     0.159247     0.393168  Biso 1.000000     C
    C   1.0     0.196008     0.427431     0.479670  Biso 1.000000     C
    C   1.0     0.696021     0.427426     0.479671  Biso 1.000000     C
    C   1.0     0.244897     0.521330     0.231393  Biso 1.000000     C
    C   1.0     0.744909     0.521330     0.231394  Biso 1.000000     C
    C   1.0     0.312475     0.647843     0.267966  Biso 1.000000     C
    C   1.0     0.812487     0.647844     0.267967  Biso 1.000000     C
    C   1.0     0.359267     0.612072     0.230008  Biso 1.000000     C
    C   1.0     0.859279     0.612072     0.230011  Biso 1.000000     C
    C   1.0     0.413301     0.662424     0.231146  Biso 1.000000     C
    C   1.0     0.913313     0.662421     0.231151  Biso 1.000000     C
    C   1.0     0.420432     0.748188     0.268950  Biso 1.000000     C
    C   1.0     0.920444     0.748187     0.268954  Biso 1.000000     C
    C   1.0     0.373340     0.782514     0.307454  Biso 1.000000     C
    C   1.0     0.873353     0.782509     0.307460  Biso 1.000000     C
    C   1.0     0.319545     0.732155     0.307317  Biso 1.000000     C
    C   1.0     0.819558     0.732153     0.307321  Biso 1.000000     C
    C   1.0     0.463993     0.621231     0.193126  Biso 1.000000     C
    C   1.0     0.964004     0.621232     0.193128  Biso 1.000000     C
    C   1.0     0.380971     0.871207     0.350292  Biso 1.000000     C
    C   1.0     0.880983     0.871204     0.350297  Biso 1.000000     C
    C   1.0     0.480595     0.607834     0.809976  Biso 1.000000     C
    C   1.0     0.980612     0.607841     0.809974  Biso 1.000000     C
    C   1.0     0.451255     0.697038     0.820231  Biso 1.000000     C
    C   1.0     0.951272     0.697045     0.820228  Biso 1.000000     C
    C   1.0     0.456455     0.745453     0.881766  Biso 1.000000     C
    C   1.0     0.956468     0.745458     0.881764  Biso 1.000000     C
    C   1.0     0.489350     0.703811     0.933817  Biso 1.000000     C
    C   1.0     0.989362     0.703816     0.933816  Biso 1.000000     C
    C   1.0     0.017925     0.614377     0.923372  Biso 1.000000     C
    C   1.0     0.517933     0.614373     0.923372  Biso 1.000000     C
    C   1.0     0.014620     0.566351     0.861144  Biso 1.000000     C
    C   1.0     0.514625     0.566346     0.861144  Biso 1.000000     C
    C   1.0     0.426031     0.840896     0.892838  Biso 1.000000     C
    C   1.0     0.926042     0.840898     0.892836  Biso 1.000000     C
    C   1.0     0.052011     0.571086     0.979698  Biso 1.000000     C
    C   1.0     0.552021     0.571085     0.979697  Biso 1.000000     C
    C   1.0     0.004973     0.481467     0.729935  Biso 1.000000     C
    C   1.0     0.504978     0.481469     0.729932  Biso 1.000000     C
    C   1.0     0.438114     0.353267     0.766490  Biso 1.000000     C
    C   1.0     0.938123     0.353275     0.766498  Biso 1.000000     C
    C   1.0     0.391054     0.388130     0.728299  Biso 1.000000     C
    C   1.0     0.891064     0.388138     0.728306  Biso 1.000000     C
    C   1.0     0.337136     0.337441     0.730163  Biso 1.000000     C
    C   1.0     0.837147     0.337441     0.730162  Biso 1.000000     C
    C   1.0     0.330463     0.252221     0.768900  Biso 1.000000     C
    C   1.0     0.830473     0.252225     0.768903  Biso 1.000000     C
    C   1.0     0.377852     0.218691     0.807572  Biso 1.000000     C
    C   1.0     0.877862     0.218694     0.807574  Biso 1.000000     C
    C   1.0     0.431522     0.269396     0.806714  Biso 1.000000     C
    C   1.0     0.931531     0.269401     0.806720  Biso 1.000000     C
    C   1.0     0.286137     0.377702     0.691769  Biso 1.000000     C
    C   1.0     0.786148     0.377703     0.691769  Biso 1.000000     C
    C   1.0     0.370461     0.130366     0.851082  Biso 1.000000     C
    C   1.0     0.870471     0.130367     0.851083  Biso 1.000000     C
    C   1.0     0.230869     0.892931     0.186035  Biso 1.000000     C
    C   1.0     0.730881     0.892930     0.186036  Biso 1.000000     C
    C   1.0     0.200863     0.803959     0.175664  Biso 1.000000     C
    C   1.0     0.700875     0.803958     0.175665  Biso 1.000000     C
    C   1.0     0.206047     0.755059     0.114360  Biso 1.000000     C
    C   1.0     0.706058     0.755058     0.114362  Biso 1.000000     C
    C   1.0     0.239785     0.796040     0.062621  Biso 1.000000     C
    C   1.0     0.739796     0.796038     0.062621  Biso 1.000000     C
    C   1.0     0.269203     0.885215     0.073228  Biso 1.000000     C
    C   1.0     0.769214     0.885214     0.073228  Biso 1.000000     C
    C   1.0     0.265732     0.933699     0.135262  Biso 1.000000     C
    C   1.0     0.765744     0.933698     0.135263  Biso 1.000000     C
    C   1.0     0.174662     0.659810     0.103512  Biso 1.000000     C
    C   1.0     0.674673     0.659809     0.103513  Biso 1.000000     C
    C   1.0     0.304119     0.928188     0.017302  Biso 1.000000     C
    C   1.0     0.804130     0.928186     0.017303  Biso 1.000000     C
    C   1.0     0.254752     0.020628     0.265492  Biso 1.000000     C
    C   1.0     0.754764     0.020628     0.265491  Biso 1.000000     C
    C   1.0     0.187422     0.147404     0.229385  Biso 1.000000     C
    C   1.0     0.687435     0.147407     0.229388  Biso 1.000000     C
    C   1.0     0.140745     0.111974     0.268146  Biso 1.000000     C
    C   1.0     0.640757     0.111974     0.268147  Biso 1.000000     C
    C   1.0     0.086939     0.162325     0.267132  Biso 1.000000     C
    C   1.0     0.586949     0.162319     0.267129  Biso 1.000000     C
    C   1.0     0.079940     0.247597     0.228643  Biso 1.000000     C
    C   1.0     0.579952     0.247598     0.228645  Biso 1.000000     C
    C   1.0     0.126895     0.281688     0.189483  Biso 1.000000     C
    C   1.0     0.626905     0.281685     0.189482  Biso 1.000000     C
    C   1.0     0.180480     0.231468     0.189513  Biso 1.000000     C
    C   1.0     0.680490     0.231467     0.189512  Biso 1.000000     C
    C   1.0     0.036132     0.121911     0.305892  Biso 1.000000     C
    C   1.0     0.536142     0.121910     0.305892  Biso 1.000000     C
    C   1.0     0.118978     0.369751     0.146006  Biso 1.000000     C
    C   1.0     0.618989     0.369751     0.146007  Biso 1.000000     C
    C   1.0     0.018783     0.105621     0.686323  Biso 1.000000     C
    C   1.0     0.518795     0.105618     0.686321  Biso 1.000000     C
    C   1.0     0.048134     0.195328     0.676176  Biso 1.000000     C
    C   1.0     0.548146     0.195325     0.676175  Biso 1.000000     C
    C   1.0     0.042472     0.244889     0.614957  Biso 1.000000     C
    C   1.0     0.542482     0.244890     0.614957  Biso 1.000000     C
    C   1.0     0.008850     0.204081     0.563156  Biso 1.000000     C
    C   1.0     0.508861     0.204080     0.563156  Biso 1.000000     C
    C   1.0     0.480099     0.114257     0.573575  Biso 1.000000     C
    C   1.0     0.980110     0.114254     0.573575  Biso 1.000000     C
    C   1.0     0.484103     0.064908     0.635437  Biso 1.000000     C
    C   1.0     0.984114     0.064908     0.635438  Biso 1.000000     C
    C   1.0     0.073417     0.340460     0.604070  Biso 1.000000     C
    C   1.0     0.573429     0.340459     0.604070  Biso 1.000000     C
    C   1.0     0.445118     0.071653     0.517723  Biso 1.000000     C
    C   1.0     0.945128     0.071652     0.517723  Biso 1.000000     C
    C   1.0     0.495435     0.976854     0.765613  Biso 1.000000     C
    C   1.0     0.995443     0.976858     0.765614  Biso 1.000000     C
    C   1.0     0.062726     0.850487     0.729643  Biso 1.000000     C
    C   1.0     0.562738     0.850486     0.729640  Biso 1.000000     C
    C   1.0     0.109446     0.886170     0.768206  Biso 1.000000     C
    C   1.0     0.609458     0.886164     0.768206  Biso 1.000000     C
    C   1.0     0.163346     0.836139     0.767366  Biso 1.000000     C
    C   1.0     0.663357     0.836128     0.767369  Biso 1.000000     C
    C   1.0     0.170368     0.750723     0.729316  Biso 1.000000     C
    C   1.0     0.670381     0.750723     0.729308  Biso 1.000000     C
    C   1.0     0.123369     0.716452     0.690242  Biso 1.000000     C
    C   1.0     0.623380     0.716450     0.690237  Biso 1.000000     C
    C   1.0     0.069721     0.766521     0.690048  Biso 1.000000     C
    C   1.0     0.569732     0.766518     0.690047  Biso 1.000000     C
    C   1.0     0.214186     0.877647     0.805602  Biso 1.000000     C
    C   1.0     0.714197     0.877642     0.805602  Biso 1.000000     C
    C   1.0     0.131101     0.628432     0.646958  Biso 1.000000     C
    C   1.0     0.631113     0.628438     0.646946  Biso 1.000000     C
    O   1.0     0.359992     0.129235     0.350158  Biso 1.000000     O
    O   1.0     0.860004     0.129234     0.350158  Biso 1.000000     O
    O   1.0     0.309505     0.110996     0.447026  Biso 1.000000     O
    O   1.0     0.809519     0.111000     0.447028  Biso 1.000000     O
    O   1.0     0.201831     0.390014     0.537832  Biso 1.000000     O
    O   1.0     0.701845     0.390009     0.537833  Biso 1.000000     O
    O   1.0     0.160533     0.499161     0.466503  Biso 1.000000     O
    O   1.0     0.660547     0.499160     0.466505  Biso 1.000000     O
    O   1.0     0.277419     0.435799     0.248790  Biso 1.000000     O
    O   1.0     0.777430     0.435799     0.248790  Biso 1.000000     O
    O   1.0     0.257454     0.604712     0.271663  Biso 1.000000     O
    O   1.0     0.757466     0.604711     0.271665  Biso 1.000000     O
    O   1.0     0.457643     0.546812     0.155366  Biso 1.000000     O
    O   1.0     0.957653     0.546815     0.155366  Biso 1.000000     O
    O   1.0     0.514918     0.662498     0.200053  Biso 1.000000     O
    O   1.0     0.000000     0.662499     0.200053  Biso 1.000000     O
    O   1.0     0.424156     0.928526     0.339564  Biso 1.000000     O
    O   1.0     0.924169     0.928520     0.339572  Biso 1.000000     O
    O   1.0     0.342333     0.883276     0.397178  Biso 1.000000     O
    O   1.0     0.842341     0.883277     0.397179  Biso 1.000000     O
    O   1.0     0.389329     0.871825     0.849847  Biso 1.000000     O
    O   1.0     0.889341     0.871828     0.849845  Biso 1.000000     O
    O   1.0     0.439924     0.888209     0.946886  Biso 1.000000     O
    O   1.0     0.939935     0.888211     0.946885  Biso 1.000000     O
    O   1.0     0.045499     0.607775     0.037820  Biso 1.000000     O
    O   1.0     0.545508     0.607772     0.037820  Biso 1.000000     O
    O   1.0     0.087845     0.499952     0.966771  Biso 1.000000     O
    O   1.0     0.587855     0.499950     0.966771  Biso 1.000000     O
    O   1.0     0.472048     0.566181     0.747725  Biso 1.000000     O
    O   1.0     0.972067     0.566186     0.747722  Biso 1.000000     O
    O   1.0    -0.006994     0.396853     0.769585  Biso 1.000000     O
    O   1.0     0.493015     0.396849     0.769578  Biso 1.000000     O
    O   1.0     0.292286     0.450409     0.652436  Biso 1.000000     O
    O   1.0     0.792296     0.450414     0.652440  Biso 1.000000     O
    O   1.0     0.235120     0.337047     0.700330  Biso 1.000000     O
    O   1.0     0.735131     0.337051     0.700332  Biso 1.000000     O
    O   1.0     0.326385     0.074387     0.841731  Biso 1.000000     O
    O   1.0     0.826394     0.074390     0.841732  Biso 1.000000     O
    O   1.0     0.409822     0.116833     0.897145  Biso 1.000000     O
    O   1.0     0.909831     0.116834     0.897146  Biso 1.000000     O
    O   1.0     0.137902     0.629191     0.146619  Biso 1.000000     O
    O   1.0     0.637911     0.629192     0.146619  Biso 1.000000     O
    O   1.0     0.187899     0.612274     0.049468  Biso 1.000000     O
    O   1.0     0.687909     0.612273     0.049468  Biso 1.000000     O
    O   1.0     0.297905     0.891304     0.959167  Biso 1.000000     O
    O   1.0     0.797915     0.891305     0.959167  Biso 1.000000     O
    O   1.0     0.340279    -0.000642     0.030459  Biso 1.000000     O
    O   1.0     0.840289    -0.000641     0.030459  Biso 1.000000     O
    O   1.0     0.222129     0.934964     0.248058  Biso 1.000000     O
    O   1.0     0.722141     0.934964     0.248059  Biso 1.000000     O
    O   1.0     0.242247     0.104357     0.225369  Biso 1.000000     O
    O   1.0     0.742258     0.104356     0.225368  Biso 1.000000     O
    O   1.0     0.042214     0.049617     0.345472  Biso 1.000000     O
    O   1.0     0.542225     0.049620     0.345476  Biso 1.000000     O
    O   1.0    -0.014794     0.162388     0.297240  Biso 1.000000     O
    O   1.0     0.485217     0.162388     0.297241  Biso 1.000000     O
    O   1.0     0.075051     0.425263     0.155633  Biso 1.000000     O
    O   1.0     0.575062     0.425263     0.155635  Biso 1.000000     O
    O   1.0     0.157881     0.383428     0.099534  Biso 1.000000     O
    O   1.0     0.657892     0.383429     0.099535  Biso 1.000000     O
    O   1.0     0.110257     0.370773     0.647243  Biso 1.000000     O
    O   1.0     0.610268     0.370773     0.647243  Biso 1.000000     O
    O   1.0     0.060066     0.388544     0.550118  Biso 1.000000     O
    O   1.0     0.560077     0.388543     0.550118  Biso 1.000000     O
    O   1.0     0.450452     0.109665     0.459652  Biso 1.000000     O
    O   1.0     0.950462     0.109664     0.459652  Biso 1.000000     O
    O   1.0     0.409548     0.999677     0.530812  Biso 1.000000     O
    O   1.0     0.909558     0.999676     0.530812  Biso 1.000000     O
    O   1.0     0.027970     0.062706     0.748144  Biso 1.000000     O
    O   1.0     0.527981     0.062703     0.748143  Biso 1.000000     O
    O   1.0     0.507866     0.893396     0.725533  Biso 1.000000     O
    O   1.0     0.000000     0.893402     0.725532  Biso 1.000000     O
    O   1.0     0.207862     0.950588     0.844405  Biso 1.000000     O
    O   1.0     0.707872     0.950587     0.844402  Biso 1.000000     O
    O   1.0     0.265259     0.838002     0.797320  Biso 1.000000     O
    O   1.0     0.765271     0.838002     0.797319  Biso 1.000000     O
    O   1.0     0.174349     0.571640     0.657393  Biso 1.000000     O
    O   1.0     0.674368     0.571654     0.657363  Biso 1.000000     O
    O   1.0     0.092545     0.616289     0.599800  Biso 1.000000     O
    O   1.0     0.592550     0.616291     0.599796  Biso 1.000000     O
   Zn   1.0     0.355289     0.991975     0.455778  Biso 1.000000    Zn
   Zn   1.0     0.855299     0.991974     0.455779  Biso 1.000000    Zn
   Zn   1.0     0.444887     0.070481     0.361178  Biso 1.000000    Zn
   Zn   1.0     0.944897     0.070479     0.361178  Biso 1.000000    Zn
   Zn   1.0     0.394789     0.008035     0.955832  Biso 1.000000    Zn
   Zn   1.0     0.894799     0.008035     0.955832  Biso 1.000000    Zn
   Zn   1.0     0.304808     0.932292     0.861019  Biso 1.000000    Zn
   Zn   1.0     0.804818     0.932294     0.861018  Biso 1.000000    Zn
   Zn   1.0     0.142464     0.492075     0.041271  Biso 1.000000    Zn
   Zn   1.0     0.642474     0.492075     0.041271  Biso 1.000000    Zn
   Zn   1.0     0.052920     0.567120     0.136047  Biso 1.000000    Zn
   Zn   1.0     0.552929     0.567120     0.136048  Biso 1.000000    Zn
   Zn   1.0     0.106874     0.507788     0.541518  Biso 1.000000    Zn
   Zn   1.0     0.606885     0.507788     0.541516  Biso 1.000000    Zn
   Zn   1.0     0.195125     0.429445     0.636270  Biso 1.000000    Zn
   Zn   1.0     0.695136     0.429445     0.636269  Biso 1.000000    Zn
