#======================================================================

# CRYSTAL DATA

#----------------------------------------------------------------------

data_VESTA_phase_1


_pd_phase_name                         MOF
_cell_length_a                         12.63000
_cell_length_b                         17.49900
_cell_length_c                         19.55000
_cell_angle_alpha                      115.28900
_cell_angle_beta                       95.52000
_cell_angle_gamma                      83.62700
_symmetry_space_group_name_H-M         "P 1"
_symmetry_Int_Tables_number            1

loop_
_symmetry_equiv_pos_as_xyz
   "x, y, z"

loop_
   _atom_site_label
   _atom_site_occupancy
   _atom_site_fract_x
   _atom_site_fract_y
   _atom_site_fract_z
   _atom_site_adp_type
   _atom_site_B_iso_or_equiv
   _atom_site_type_symbol
    C   1.0     0.091324     0.044608     0.336360  Biso 1.000000     C
    C   1.0     0.091324     0.044604     0.836346  Biso 1.000000     C
    C   1.0     0.091323     0.544603     0.336361  Biso 1.000000     C
    C   1.0     0.091322     0.544600     0.836348  Biso 1.000000     C
    C   1.0     0.591344     0.044701     0.336418  Biso 1.000000     C
    C   1.0     0.591342     0.044698     0.836406  Biso 1.000000     C
    C   1.0     0.591343     0.544695     0.336417  Biso 1.000000     C
    C   1.0     0.591341     0.544692     0.836406  Biso 1.000000     C
    C   1.0     0.162669     0.090811     0.308356  Biso 1.000000     C
    C   1.0     0.162667     0.090807     0.808342  Biso 1.000000     C
    C   1.0     0.162667     0.590805     0.308356  Biso 1.000000     C
    C   1.0     0.162666     0.590802     0.808343  Biso 1.000000     C
    C   1.0     0.662713     0.090896     0.308431  Biso 1.000000     C
    C   1.0     0.662712     0.090894     0.808419  Biso 1.000000     C
    C   1.0     0.662712     0.590890     0.308430  Biso 1.000000     C
    C   1.0     0.662710     0.590887     0.808417  Biso 1.000000     C
    C   1.0     0.070588     0.359941     0.407019  Biso 1.000000     C
    C   1.0     0.070588     0.359934     0.907007  Biso 1.000000     C
    C   1.0     0.070587     0.859936     0.407019  Biso 1.000000     C
    C   1.0     0.070586     0.859931     0.907008  Biso 1.000000     C
    C   1.0     0.570571     0.359937     0.407039  Biso 1.000000     C
    C   1.0     0.570569     0.359935     0.907027  Biso 1.000000     C
    C   1.0     0.570569     0.859930     0.407040  Biso 1.000000     C
    C   1.0     0.570568     0.859928     0.907028  Biso 1.000000     C
    C   1.0     0.194425     0.357227     0.405738  Biso 1.000000     C
    C   1.0     0.194424     0.357220     0.905726  Biso 1.000000     C
    C   1.0     0.194423     0.857220     0.405738  Biso 1.000000     C
    C   1.0     0.194422     0.857215     0.905727  Biso 1.000000     C
    C   1.0     0.694414     0.357232     0.405812  Biso 1.000000     C
    C   1.0     0.694412     0.357231     0.905799  Biso 1.000000     C
    C   1.0     0.694412     0.857225     0.405813  Biso 1.000000     C
    C   1.0     0.694411     0.857223     0.905800  Biso 1.000000     C
    C   1.0     0.408653     0.455289     0.163570  Biso 1.000000     C
    C   1.0     0.408652     0.455286     0.663557  Biso 1.000000     C
    C   1.0     0.408652     0.955283     0.163569  Biso 1.000000     C
    C   1.0     0.408651     0.955282     0.663558  Biso 1.000000     C
    C   1.0     0.908673     0.455380     0.163626  Biso 1.000000     C
    C   1.0     0.908671     0.455379     0.663615  Biso 1.000000     C
    C   1.0     0.908671     0.955376     0.163627  Biso 1.000000     C
    C   1.0     0.908670     0.955374     0.663616  Biso 1.000000     C
    C   1.0     0.337283     0.409095     0.191558  Biso 1.000000     C
    C   1.0     0.337282     0.409092     0.691544  Biso 1.000000     C
    C   1.0     0.337281     0.909088     0.191556  Biso 1.000000     C
    C   1.0     0.337280     0.909087     0.691545  Biso 1.000000     C
    C   1.0     0.837327     0.409179     0.191630  Biso 1.000000     C
    C   1.0     0.837326     0.409178     0.691620  Biso 1.000000     C
    C   1.0     0.837326     0.909175     0.191631  Biso 1.000000     C
    C   1.0     0.837324     0.909172     0.691620  Biso 1.000000     C
    C   1.0     0.429428     0.140052     0.092947  Biso 1.000000     C
    C   1.0     0.429427     0.140050     0.592934  Biso 1.000000     C
    C   1.0     0.429426     0.640048     0.092946  Biso 1.000000     C
    C   1.0     0.429425     0.640043     0.592935  Biso 1.000000     C
    C   1.0     0.929410     0.140047     0.092967  Biso 1.000000     C
    C   1.0     0.929409     0.140044     0.592955  Biso 1.000000     C
    C   1.0     0.929408     0.640041     0.092968  Biso 1.000000     C
    C   1.0     0.929407     0.640037     0.592956  Biso 1.000000     C
    C   1.0     0.305583     0.142760     0.094176  Biso 1.000000     C
    C   1.0     0.305582     0.142758     0.594163  Biso 1.000000     C
    C   1.0     0.305581     0.642755     0.094176  Biso 1.000000     C
    C   1.0     0.305580     0.642750     0.594164  Biso 1.000000     C
    C   1.0     0.805572     0.142764     0.094249  Biso 1.000000     C
    C   1.0     0.805571     0.142762     0.594237  Biso 1.000000     C
    C   1.0     0.805571     0.642757     0.094250  Biso 1.000000     C
    C   1.0     0.805570     0.642754     0.594238  Biso 1.000000     C
    O   1.0     0.494536     0.072763     0.347098  Biso 1.000000     O
    O   1.0     0.494535     0.072761     0.847086  Biso 1.000000     O
    O   1.0     0.494535     0.572758     0.347097  Biso 1.000000     O
    O   1.0     0.494535     0.572756     0.847087  Biso 1.000000     O
    O   1.0     0.994530     0.072654     0.347058  Biso 1.000000     O
    O   1.0     0.994530     0.072652     0.847046  Biso 1.000000     O
    O   1.0     0.994527     0.572646     0.347056  Biso 1.000000     O
    O   1.0     0.994527     0.572645     0.847045  Biso 1.000000     O
    O   1.0     0.134548     0.479176     0.344001  Biso 1.000000     O
    O   1.0     0.134546     0.479174     0.843989  Biso 1.000000     O
    O   1.0     0.134548     0.979172     0.343999  Biso 1.000000     O
    O   1.0     0.134546     0.979171     0.843990  Biso 1.000000     O
    O   1.0     0.634529     0.479275     0.344083  Biso 1.000000     O
    O   1.0     0.634528     0.479272     0.844070  Biso 1.000000     O
    O   1.0     0.634530     0.979270     0.344080  Biso 1.000000     O
    O   1.0     0.634529     0.979268     0.844068  Biso 1.000000     O
    O   1.0     0.119469     0.117535     0.260357  Biso 1.000000     O
    O   1.0     0.119469     0.117535     0.760345  Biso 1.000000     O
    O   1.0     0.119468     0.617528     0.260356  Biso 1.000000     O
    O   1.0     0.119467     0.617527     0.760344  Biso 1.000000     O
    O   1.0     0.619541     0.117608     0.260415  Biso 1.000000     O
    O   1.0     0.619539     0.117606     0.760404  Biso 1.000000     O
    O   1.0     0.619539     0.617603     0.260414  Biso 1.000000     O
    O   1.0     0.619538     0.617600     0.760402  Biso 1.000000     O
    O   1.0     0.259405     0.096656     0.333496  Biso 1.000000     O
    O   1.0     0.259402     0.096654     0.833485  Biso 1.000000     O
    O   1.0     0.259404     0.596651     0.333496  Biso 1.000000     O
    O   1.0     0.259402     0.596648     0.833484  Biso 1.000000     O
    O   1.0     0.759439     0.096736     0.333590  Biso 1.000000     O
    O   1.0     0.759437     0.096732     0.833577  Biso 1.000000     O
    O   1.0     0.759436     0.596732     0.333591  Biso 1.000000     O
    O   1.0     0.759435     0.596728     0.833578  Biso 1.000000     O
    O   1.0     0.018548     0.320058     0.344284  Biso 1.000000     O
    O   1.0     0.018547     0.320056     0.844271  Biso 1.000000     O
    O   1.0     0.018546     0.820052     0.344284  Biso 1.000000     O
    O   1.0     0.018545     0.820050     0.844272  Biso 1.000000     O
    O   1.0     0.518560     0.320066     0.344286  Biso 1.000000     O
    O   1.0     0.518559     0.320063     0.844274  Biso 1.000000     O
    O   1.0     0.518558     0.820060     0.344287  Biso 1.000000     O
    O   1.0     0.518557     0.820057     0.844275  Biso 1.000000     O
    O   1.0     0.028206     0.406141     0.468650  Biso 1.000000     O
    O   1.0     0.028205     0.406139     0.968637  Biso 1.000000     O
    O   1.0     0.028205     0.906134     0.468651  Biso 1.000000     O
    O   1.0     0.028204     0.906132     0.968639  Biso 1.000000     O
    O   1.0     0.528164     0.406136     0.468660  Biso 1.000000     O
    O   1.0     0.528163     0.406131     0.968648  Biso 1.000000     O
    O   1.0     0.528162     0.906130     0.468660  Biso 1.000000     O
    O   1.0     0.528161     0.906127     0.968648  Biso 1.000000     O
    O   1.0     0.236674     0.314947     0.342085  Biso 1.000000     O
    O   1.0     0.236673     0.314946     0.842072  Biso 1.000000     O
    O   1.0     0.236672     0.814939     0.342086  Biso 1.000000     O
    O   1.0     0.236671     0.814937     0.842073  Biso 1.000000     O
    O   1.0     0.736705     0.315113     0.342149  Biso 1.000000     O
    O   1.0     0.736704     0.315110     0.842137  Biso 1.000000     O
    O   1.0     0.736703     0.815104     0.342150  Biso 1.000000     O
    O   1.0     0.736702     0.815102     0.842137  Biso 1.000000     O
    O   1.0     0.244196     0.402122     0.466537  Biso 1.000000     O
    O   1.0     0.244194     0.402120     0.966525  Biso 1.000000     O
    O   1.0     0.244195     0.902115     0.466538  Biso 1.000000     O
    O   1.0     0.244194     0.902112     0.966526  Biso 1.000000     O
    O   1.0     0.744166     0.401982     0.466674  Biso 1.000000     O
    O   1.0     0.744166     0.401979     0.966661  Biso 1.000000     O
    O   1.0     0.744165     0.901977     0.466673  Biso 1.000000     O
    O   1.0     0.744164     0.901974     0.966661  Biso 1.000000     O
    O   1.0     0.005468     0.427332     0.152928  Biso 1.000000     O
    O   1.0     0.005465     0.427329     0.652915  Biso 1.000000     O
    O   1.0     0.005465     0.927325     0.152927  Biso 1.000000     O
    O   1.0     0.005463     0.927323     0.652915  Biso 1.000000     O
    O   1.0     0.505459     0.427221     0.152887  Biso 1.000000     O
    O   1.0     0.505459     0.427220     0.652876  Biso 1.000000     O
    O   1.0     0.505458     0.927216     0.152887  Biso 1.000000     O
    O   1.0     0.505456     0.927213     0.652875  Biso 1.000000     O
    O   1.0     0.365472     0.020715     0.155908  Biso 1.000000     O
    O   1.0     0.365470     0.020713     0.655895  Biso 1.000000     O
    O   1.0     0.365473     0.520711     0.155906  Biso 1.000000     O
    O   1.0     0.365470     0.520709     0.655895  Biso 1.000000     O
    O   1.0     0.865454     0.020813     0.155988  Biso 1.000000     O
    O   1.0     0.865453     0.020810     0.655976  Biso 1.000000     O
    O   1.0     0.865454     0.520809     0.155988  Biso 1.000000     O
    O   1.0     0.865452     0.520807     0.655975  Biso 1.000000     O
    O   1.0     0.380455     0.382382     0.239573  Biso 1.000000     O
    O   1.0     0.380454     0.382380     0.739560  Biso 1.000000     O
    O   1.0     0.380454     0.882377     0.239573  Biso 1.000000     O
    O   1.0     0.380452     0.882374     0.739560  Biso 1.000000     O
    O   1.0     0.880526     0.382457     0.239631  Biso 1.000000     O
    O   1.0     0.880525     0.382453     0.739619  Biso 1.000000     O
    O   1.0     0.880524     0.882450     0.239631  Biso 1.000000     O
    O   1.0     0.880523     0.882447     0.739619  Biso 1.000000     O
    O   1.0     0.240560     0.403254     0.166396  Biso 1.000000     O
    O   1.0     0.240558     0.403251     0.666384  Biso 1.000000     O
    O   1.0     0.240557     0.903249     0.166396  Biso 1.000000     O
    O   1.0     0.240557     0.903245     0.666383  Biso 1.000000     O
    O   1.0     0.740591     0.403335     0.166491  Biso 1.000000     O
    O   1.0     0.740591     0.403332     0.666479  Biso 1.000000     O
    O   1.0     0.740590     0.903329     0.166490  Biso 1.000000     O
    O   1.0     0.740589     0.903326     0.666478  Biso 1.000000     O
    O   1.0     0.481442     0.179922     0.155698  Biso 1.000000     O
    O   1.0     0.481441     0.179918     0.655686  Biso 1.000000     O
    O   1.0     0.481440     0.679915     0.155699  Biso 1.000000     O
    O   1.0     0.481440     0.679912     0.655687  Biso 1.000000     O
    O   1.0     0.981454     0.179929     0.155701  Biso 1.000000     O
    O   1.0     0.981453     0.179926     0.655689  Biso 1.000000     O
    O   1.0     0.981452     0.679924     0.155701  Biso 1.000000     O
    O   1.0     0.981451     0.679921     0.655689  Biso 1.000000     O
    O   1.0     0.471834     0.093852     0.031326  Biso 1.000000     O
    O   1.0     0.471833     0.093849     0.531314  Biso 1.000000     O
    O   1.0     0.471833     0.593846     0.031327  Biso 1.000000     O
    O   1.0     0.471832     0.593843     0.531314  Biso 1.000000     O
    O   1.0     0.971792     0.093848     0.031335  Biso 1.000000     O
    O   1.0     0.971791     0.093845     0.531323  Biso 1.000000     O
    O   1.0     0.971790     0.593842     0.031336  Biso 1.000000     O
    O   1.0     0.971790     0.593840     0.531323  Biso 1.000000     O
    O   1.0     0.263296     0.184882     0.157840  Biso 1.000000     O
    O   1.0     0.263295     0.184880     0.657827  Biso 1.000000     O
    O   1.0     0.263294     0.684873     0.157840  Biso 1.000000     O
    O   1.0     0.263293     0.684872     0.657828  Biso 1.000000     O
    O   1.0     0.763327     0.185047     0.157904  Biso 1.000000     O
    O   1.0     0.763326     0.185045     0.657891  Biso 1.000000     O
    O   1.0     0.763325     0.685039     0.157904  Biso 1.000000     O
    O   1.0     0.763324     0.685038     0.657892  Biso 1.000000     O
    O   1.0     0.255826     0.098011     0.033316  Biso 1.000000     O
    O   1.0     0.255825     0.098007     0.533304  Biso 1.000000     O
    O   1.0     0.255825     0.598004     0.033316  Biso 1.000000     O
    O   1.0     0.255824     0.598001     0.533304  Biso 1.000000     O
    O   1.0     0.755796     0.097873     0.033451  Biso 1.000000     O
    O   1.0     0.755796     0.097869     0.533438  Biso 1.000000     O
    O   1.0     0.755795     0.597866     0.033451  Biso 1.000000     O
    O   1.0     0.755794     0.597863     0.533439  Biso 1.000000     O
   Ba   1.0     0.359772     0.487504     0.400489  Biso 1.000000    Ba
   Ba   1.0     0.359769     0.487501     0.900477  Biso 1.000000    Ba
   Ba   1.0     0.359771     0.987499     0.400489  Biso 1.000000    Ba
   Ba   1.0     0.359769     0.987496     0.900477  Biso 1.000000    Ba
   Ba   1.0     0.859721     0.487450     0.400531  Biso 1.000000    Ba
   Ba   1.0     0.859721     0.487447     0.900519  Biso 1.000000    Ba
   Ba   1.0     0.859720     0.987446     0.400531  Biso 1.000000    Ba
   Ba   1.0     0.859720     0.987443     0.900519  Biso 1.000000    Ba
   Ba   1.0     0.393164     0.180669     0.283072  Biso 1.000000    Ba
   Ba   1.0     0.393162     0.180666     0.783060  Biso 1.000000    Ba
   Ba   1.0     0.393162     0.680662     0.283073  Biso 1.000000    Ba
   Ba   1.0     0.393161     0.680660     0.783061  Biso 1.000000    Ba
   Ba   1.0     0.893176     0.180696     0.283110  Biso 1.000000    Ba
   Ba   1.0     0.893175     0.180694     0.783098  Biso 1.000000    Ba
   Ba   1.0     0.893174     0.680690     0.283110  Biso 1.000000    Ba
   Ba   1.0     0.893173     0.680687     0.783098  Biso 1.000000    Ba
   Ba   1.0     0.140268     0.012539     0.099456  Biso 1.000000    Ba
   Ba   1.0     0.140267     0.012536     0.599443  Biso 1.000000    Ba
   Ba   1.0     0.140268     0.512534     0.099456  Biso 1.000000    Ba
   Ba   1.0     0.140266     0.512531     0.599443  Biso 1.000000    Ba
   Ba   1.0     0.640218     0.012485     0.099498  Biso 1.000000    Ba
   Ba   1.0     0.640216     0.012482     0.599486  Biso 1.000000    Ba
   Ba   1.0     0.640215     0.512480     0.099498  Biso 1.000000    Ba
   Ba   1.0     0.640215     0.512477     0.599486  Biso 1.000000    Ba
   Ba   1.0     0.106817     0.319294     0.216876  Biso 1.000000    Ba
   Ba   1.0     0.106815     0.319292     0.716864  Biso 1.000000    Ba
   Ba   1.0     0.106815     0.819288     0.216876  Biso 1.000000    Ba
   Ba   1.0     0.106814     0.819286     0.716864  Biso 1.000000    Ba
   Ba   1.0     0.606829     0.319322     0.216914  Biso 1.000000    Ba
   Ba   1.0     0.606827     0.319319     0.716902  Biso 1.000000    Ba
   Ba   1.0     0.606828     0.819315     0.216915  Biso 1.000000    Ba
   Ba   1.0     0.606826     0.819313     0.716902  Biso 1.000000    Ba
