#======================================================================

# CRYSTAL DATA

#----------------------------------------------------------------------

data_VESTA_phase_1


_pd_phase_name                         MOF
_cell_length_a                         18.60400
_cell_length_b                         19.05200
_cell_length_c                         19.05900
_cell_angle_alpha                      70.33100
_cell_angle_beta                       70.88500
_cell_angle_gamma                      108.96700
_symmetry_space_group_name_H-M         "P 1"
_symmetry_Int_Tables_number            1

loop_
_symmetry_equiv_pos_as_xyz
   "x, y, z"

loop_
   _atom_site_label
   _atom_site_occupancy
   _atom_site_fract_x
   _atom_site_fract_y
   _atom_site_fract_z
   _atom_site_adp_type
   _atom_site_B_iso_or_equiv
   _atom_site_type_symbol
    H   1.0     0.502953     0.378025     0.271527  Biso 1.000000     H
    H   1.0     0.364140     0.234647     0.008526  Biso 1.000000     H
    H   1.0     0.420355     0.700902     0.308309  Biso 1.000000     H
    H   1.0     0.186660     0.593542     0.252681  Biso 1.000000     H
    H   1.0     0.159563     0.513260     0.174816  Biso 1.000000     H
    H   1.0     0.274362     0.480545     0.104633  Biso 1.000000     H
    H   1.0     0.523541     0.656272     0.243774  Biso 1.000000     H
    H   1.0     0.282013     0.661481     0.301711  Biso 1.000000     H
    H   1.0     0.493022     0.575693     0.168234  Biso 1.000000     H
    H   1.0     0.775338     0.271462     0.350254  Biso 1.000000     H
    H   1.0     0.371742     0.009384     0.757580  Biso 1.000000     H
    H   1.0     0.724175     0.303033     0.993508  Biso 1.000000     H
    H   1.0     0.436400     0.250751     0.158233  Biso 1.000000     H
    H   1.0     0.333156     0.175022     0.316011  Biso 1.000000     H
    H   1.0     0.378969     0.105732     0.417432  Biso 1.000000     H
    H   1.0     0.763970     0.239255     0.101259  Biso 1.000000     H
    H   1.0     0.579788     0.297908     0.040641  Biso 1.000000     H
    H   1.0     0.659584     0.166078     0.257042  Biso 1.000000     H
    H   1.0     0.126079     0.350022     0.376863  Biso 1.000000     H
    H   1.0     0.131486     0.756606     0.235296  Biso 1.000000     H
    H   1.0     0.717094     0.993500     0.703173  Biso 1.000000     H
    H   1.0     0.593286     0.157418     0.592551  Biso 1.000000     H
    H   1.0     0.648040     0.315005     0.510252  Biso 1.000000     H
    H   1.0     0.795937     0.416811     0.477088  Biso 1.000000     H
    H   1.0     0.865424     0.101454     0.657779  Biso 1.000000     H
    H   1.0     0.619223     0.040201     0.662435  Biso 1.000000     H
    H   1.0     0.917000     0.257074     0.575048  Biso 1.000000     H
    H   1.0     0.724296     0.350361     0.271673  Biso 1.000000     H
    H   1.0     0.128030     0.757144     0.009368  Biso 1.000000     H
    H   1.0     0.775683     0.993648     0.303300  Biso 1.000000     H
    H   1.0     0.063220     0.157912     0.251081  Biso 1.000000     H
    H   1.0     0.166509     0.315567     0.175156  Biso 1.000000     H
    H   1.0     0.120881     0.417113     0.105632  Biso 1.000000     H
    H   1.0     0.736082     0.101512     0.239218  Biso 1.000000     H
    H   1.0     0.919923     0.040551     0.298274  Biso 1.000000     H
    H   1.0     0.840488     0.257178     0.165845  Biso 1.000000     H
    H   1.0     0.374641     0.376868     0.350190  Biso 1.000000     H
    H   1.0     0.368529     0.235536     0.756903  Biso 1.000000     H
    H   1.0     0.783481     0.703526     0.993328  Biso 1.000000     H
    H   1.0     0.907204     0.592632     0.157033  Biso 1.000000     H
    H   1.0     0.852186     0.509893     0.314675  Biso 1.000000     H
    H   1.0     0.704097     0.476600     0.416673  Biso 1.000000     H
    H   1.0     0.634824     0.657654     0.101451  Biso 1.000000     H
    H   1.0     0.881464     0.662862     0.039883  Biso 1.000000     H
    H   1.0     0.583085     0.574724     0.257096  Biso 1.000000     H
    H   1.0     0.996487     0.271479     0.378304  Biso 1.000000     H
    H   1.0     0.136260     0.009085     0.233950  Biso 1.000000     H
    H   1.0     0.079316     0.308301     0.700913  Biso 1.000000     H
    H   1.0     0.312964     0.252023     0.593509  Biso 1.000000     H
    H   1.0     0.340006     0.173933     0.513392  Biso 1.000000     H
    H   1.0     0.225304     0.104028     0.480730  Biso 1.000000     H
    H   1.0     0.976143     0.243843     0.656512  Biso 1.000000     H
    H   1.0     0.217660     0.301467     0.661333  Biso 1.000000     H
    H   1.0     0.006751     0.168236     0.575904  Biso 1.000000     H
    H   1.0     0.497027     0.621974     0.728481  Biso 1.000000     H
    H   1.0     0.635840     0.765350     0.991486  Biso 1.000000     H
    H   1.0     0.579622     0.299094     0.691701  Biso 1.000000     H
    H   1.0     0.813318     0.406453     0.747328  Biso 1.000000     H
    H   1.0     0.840417     0.486735     0.825193  Biso 1.000000     H
    H   1.0     0.725618     0.519451     0.895376  Biso 1.000000     H
    H   1.0     0.476439     0.343728     0.756234  Biso 1.000000     H
    H   1.0     0.717964     0.338514     0.698299  Biso 1.000000     H
    H   1.0     0.506959     0.424307     0.831774  Biso 1.000000     H
    H   1.0     0.224642     0.728536     0.649761  Biso 1.000000     H
    H   1.0     0.628234     0.990612     0.242441  Biso 1.000000     H
    H   1.0     0.275800     0.696961     0.006509  Biso 1.000000     H
    H   1.0     0.563576     0.749244     0.841784  Biso 1.000000     H
    H   1.0     0.666821     0.824975     0.684006  Biso 1.000000     H
    H   1.0     0.621009     0.894267     0.582586  Biso 1.000000     H
    H   1.0     0.236006     0.760739     0.898757  Biso 1.000000     H
    H   1.0     0.420187     0.702086     0.959377  Biso 1.000000     H
    H   1.0     0.340393     0.833918     0.742975  Biso 1.000000     H
    H   1.0     0.873900     0.649976     0.623148  Biso 1.000000     H
    H   1.0     0.868493     0.243397     0.764715  Biso 1.000000     H
    H   1.0     0.282883     0.006501     0.296841  Biso 1.000000     H
    H   1.0     0.406692     0.842583     0.407462  Biso 1.000000     H
    H   1.0     0.351940     0.684996     0.489759  Biso 1.000000     H
    H   1.0     0.204045     0.583190     0.522921  Biso 1.000000     H
    H   1.0     0.134555     0.898545     0.342234  Biso 1.000000     H
    H   1.0     0.380755     0.959800     0.337579  Biso 1.000000     H
    H   1.0     0.082981     0.742925     0.424961  Biso 1.000000     H
    H   1.0     0.275682     0.649636     0.728340  Biso 1.000000     H
    H   1.0     0.871948     0.242859     0.990644  Biso 1.000000     H
    H   1.0     0.224294     0.006352     0.696712  Biso 1.000000     H
    H   1.0     0.936758     0.842084     0.748932  Biso 1.000000     H
    H   1.0     0.833470     0.684429     0.824856  Biso 1.000000     H
    H   1.0     0.879101     0.582885     0.894381  Biso 1.000000     H
    H   1.0     0.263897     0.898489     0.760794  Biso 1.000000     H
    H   1.0     0.080054     0.959447     0.701739  Biso 1.000000     H
    H   1.0     0.159493     0.742823     0.834167  Biso 1.000000     H
    H   1.0     0.625337     0.623128     0.649824  Biso 1.000000     H
    H   1.0     0.631444     0.764459     0.243118  Biso 1.000000     H
    H   1.0     0.216496     0.296471     0.006687  Biso 1.000000     H
    H   1.0     0.092772     0.407363     0.842983  Biso 1.000000     H
    H   1.0     0.147790     0.490102     0.685341  Biso 1.000000     H
    H   1.0     0.295878     0.523395     0.583343  Biso 1.000000     H
    H   1.0     0.365154     0.342345     0.898564  Biso 1.000000     H
    H   1.0     0.118512     0.337134     0.960132  Biso 1.000000     H
    H   1.0     0.416892     0.425274     0.742919  Biso 1.000000     H
    H   1.0     0.003493     0.728516     0.621708  Biso 1.000000     H
    H   1.0     0.863719     0.990913     0.766062  Biso 1.000000     H
    H   1.0     0.920659     0.691694     0.299100  Biso 1.000000     H
    H   1.0     0.687012     0.747972     0.406506  Biso 1.000000     H
    H   1.0     0.659971     0.826063     0.486622  Biso 1.000000     H
    H   1.0     0.774674     0.895968     0.519284  Biso 1.000000     H
    H   1.0     0.023834     0.756154     0.343499  Biso 1.000000     H
    H   1.0     0.782315     0.698528     0.338680  Biso 1.000000     H
    H   1.0     0.993227     0.831761     0.424106  Biso 1.000000     H
    H   1.0     0.733131     0.483251     0.034293  Biso 1.000000     H
    H   1.0     0.573301     0.324084     0.351680  Biso 1.000000     H
    H   1.0     0.766847     0.034286     0.483363  Biso 1.000000     H
    H   1.0     0.926080     0.351498     0.324149  Biso 1.000000     H
    H   1.0     0.249919     0.482545     0.482670  Biso 1.000000     H
    H   1.0     0.250534     0.323300     0.323306  Biso 1.000000     H
    H   1.0     0.266852     0.516748     0.965718  Biso 1.000000     H
    H   1.0     0.426677     0.675913     0.648331  Biso 1.000000     H
    H   1.0     0.233129     0.965711     0.516652  Biso 1.000000     H
    H   1.0     0.073901     0.648499     0.675862  Biso 1.000000     H
    H   1.0     0.750060     0.517452     0.517342  Biso 1.000000     H
    H   1.0     0.749444     0.676696     0.676706  Biso 1.000000     H
    H   1.0     0.249965     0.240654     0.240688  Biso 1.000000     H
    H   1.0     0.250246     0.081688     0.080802  Biso 1.000000     H
    H   1.0     0.490422     0.240095     0.519946  Biso 1.000000     H
    H   1.0     0.329389     0.082660     0.837520  Biso 1.000000     H
    H   1.0     0.009467     0.519709     0.240235  Biso 1.000000     H
    H   1.0     0.170548     0.837118     0.082423  Biso 1.000000     H
    H   1.0     0.750012     0.759345     0.759323  Biso 1.000000     H
    H   1.0     0.749734     0.918308     0.919211  Biso 1.000000     H
    H   1.0     0.509551     0.759900     0.480075  Biso 1.000000     H
    H   1.0     0.670587     0.917336     0.162500  Biso 1.000000     H
    H   1.0     0.990516     0.480294     0.759775  Biso 1.000000     H
    H   1.0     0.829428     0.162885     0.917588  Biso 1.000000     H
    C   1.0     0.567243     0.456487     0.099251  Biso 1.000000     C
    C   1.0     0.612290     0.431216     0.147828  Biso 1.000000     C
    C   1.0     0.568509     0.388480     0.237503  Biso 1.000000     C
    C   1.0     0.378571     0.340829     0.075743  Biso 1.000000     C
    C   1.0     0.312420     0.247883     0.119294  Biso 1.000000     C
    C   1.0     0.313464     0.202192     0.074962  Biso 1.000000     C
    C   1.0     0.406048     0.666472     0.274822  Biso 1.000000     C
    C   1.0     0.233736     0.576511     0.222423  Biso 1.000000     C
    C   1.0     0.218783     0.532352     0.179833  Biso 1.000000     C
    C   1.0     0.282411     0.512975     0.141148  Biso 1.000000     C
    C   1.0     0.465235     0.641625     0.237241  Biso 1.000000     C
    C   1.0     0.311415     0.600377     0.227350  Biso 1.000000     C
    C   1.0     0.329961     0.645567     0.270673  Biso 1.000000     C
    C   1.0     0.372529     0.576855     0.187857  Biso 1.000000     C
    C   1.0     0.449152     0.597449     0.194790  Biso 1.000000     C
    C   1.0     0.666575     0.099416     0.444458  Biso 1.000000     C
    C   1.0     0.760288     0.147831     0.421282  Biso 1.000000     C
    C   1.0     0.806641     0.237419     0.373989  Biso 1.000000     C
    C   1.0     0.453936     0.075363     0.584586  Biso 1.000000     C
    C   1.0     0.431090     0.119313     0.633868  Biso 1.000000     C
    C   1.0     0.387488     0.075710     0.723543  Biso 1.000000     C
    C   1.0     0.677099     0.270559     0.061316  Biso 1.000000     C
    C   1.0     0.453797     0.220884     0.204836  Biso 1.000000     C
    C   1.0     0.397186     0.179500     0.291412  Biso 1.000000     C
    C   1.0     0.422774     0.141244     0.348622  Biso 1.000000     C
    C   1.0     0.699360     0.233443     0.122928  Biso 1.000000     C
    C   1.0     0.536167     0.225148     0.175353  Biso 1.000000     C
    C   1.0     0.597132     0.267192     0.087003  Biso 1.000000     C
    C   1.0     0.558440     0.186093     0.237519  Biso 1.000000     C
    C   1.0     0.641752     0.192285     0.209369  Biso 1.000000     C
    C   1.0     0.111125     0.444152     0.455722  Biso 1.000000     C
    C   1.0     0.181612     0.420730     0.430423  Biso 1.000000     C
    C   1.0     0.180913     0.373523     0.387618  Biso 1.000000     C
    C   1.0     0.038351     0.583853     0.340945  Biso 1.000000     C
    C   1.0     0.065401     0.633278     0.248031  Biso 1.000000     C
    C   1.0     0.112836     0.722866     0.202646  Biso 1.000000     C
    C   1.0     0.737912     0.061247     0.667809  Biso 1.000000     C
    C   1.0     0.657628     0.204155     0.575209  Biso 1.000000     C
    C   1.0     0.687689     0.290634     0.529950  Biso 1.000000     C
    C   1.0     0.770885     0.348039     0.510334  Biso 1.000000     C
    C   1.0     0.822220     0.122983     0.642554  Biso 1.000000     C
    C   1.0     0.710794     0.174943     0.599849  Biso 1.000000     C
    C   1.0     0.683293     0.086690     0.646197  Biso 1.000000     C
    C   1.0     0.795676     0.237271     0.575974  Biso 1.000000     C
    C   1.0     0.851158     0.209332     0.597197  Biso 1.000000     C
    C   1.0     0.833314     0.444482     0.099545  Biso 1.000000     C
    C   1.0     0.739516     0.421284     0.147941  Biso 1.000000     C
    C   1.0     0.693001     0.373977     0.237573  Biso 1.000000     C
    C   1.0     0.045926     0.584285     0.075479  Biso 1.000000     C
    C   1.0     0.068753     0.633535     0.119378  Biso 1.000000     C
    C   1.0     0.112361     0.723162     0.075674  Biso 1.000000     C
    C   1.0     0.822792     0.061408     0.270723  Biso 1.000000     C
    C   1.0     0.045909     0.204572     0.221100  Biso 1.000000     C
    C   1.0     0.102556     0.291076     0.179583  Biso 1.000000     C
    C   1.0     0.077059     0.348357     0.141212  Biso 1.000000     C
    C   1.0     0.800623     0.123084     0.233458  Biso 1.000000     C
    C   1.0     0.963654     0.175229     0.225242  Biso 1.000000     C
    C   1.0     0.902652     0.086957     0.267448  Biso 1.000000     C
    C   1.0     0.941451     0.237464     0.186109  Biso 1.000000     C
    C   1.0     0.858263     0.209454     0.192157  Biso 1.000000     C
    C   1.0     0.388958     0.455700     0.444331  Biso 1.000000     C
    C   1.0     0.318632     0.430363     0.420882  Biso 1.000000     C
    C   1.0     0.319674     0.387576     0.373656  Biso 1.000000     C
    C   1.0     0.461630     0.340969     0.584029  Biso 1.000000     C
    C   1.0     0.434517     0.248059     0.633530  Biso 1.000000     C
    C   1.0     0.387122     0.202798     0.723170  Biso 1.000000     C
    C   1.0     0.762568     0.667995     0.061082  Biso 1.000000     C
    C   1.0     0.842757     0.575162     0.203858  Biso 1.000000     C
    C   1.0     0.812565     0.529697     0.290359  Biso 1.000000     C
    C   1.0     0.729244     0.509975     0.347874  Biso 1.000000     C
    C   1.0     0.678079     0.642496     0.122915  Biso 1.000000     C
    C   1.0     0.789601     0.599892     0.174727  Biso 1.000000     C
    C   1.0     0.817238     0.646430     0.086450  Biso 1.000000     C
    C   1.0     0.704553     0.575813     0.237157  Biso 1.000000     C
    C   1.0     0.649038     0.597016     0.209289  Biso 1.000000     C
    C   1.0     0.932583     0.099270     0.456703  Biso 1.000000     C
    C   1.0     0.887453     0.147793     0.431382  Biso 1.000000     C
    C   1.0     0.931029     0.237422     0.388711  Biso 1.000000     C
    C   1.0     0.121491     0.075809     0.340636  Biso 1.000000     C
    C   1.0     0.187744     0.119507     0.247590  Biso 1.000000     C
    C   1.0     0.186844     0.075462     0.201616  Biso 1.000000     C
    C   1.0     0.093642     0.274755     0.666501  Biso 1.000000     C
    C   1.0     0.265901     0.221860     0.576536  Biso 1.000000     C
    C   1.0     0.280839     0.179160     0.532441  Biso 1.000000     C
    C   1.0     0.217259     0.140612     0.513113  Biso 1.000000     C
    C   1.0     0.034465     0.237216     0.641785  Biso 1.000000     C
    C   1.0     0.188281     0.227041     0.600375  Biso 1.000000     C
    C   1.0     0.169718     0.270452     0.645528  Biso 1.000000     C
    C   1.0     0.127186     0.187620     0.576957  Biso 1.000000     C
    C   1.0     0.050587     0.194726     0.597603  Biso 1.000000     C
    C   1.0     0.432739     0.543512     0.900757  Biso 1.000000     C
    C   1.0     0.387691     0.568783     0.852181  Biso 1.000000     C
    C   1.0     0.431471     0.611518     0.762506  Biso 1.000000     C
    C   1.0     0.621406     0.659170     0.924267  Biso 1.000000     C
    C   1.0     0.687559     0.752115     0.880718  Biso 1.000000     C
    C   1.0     0.686516     0.797805     0.925050  Biso 1.000000     C
    C   1.0     0.593930     0.333525     0.725187  Biso 1.000000     C
    C   1.0     0.766243     0.423485     0.777586  Biso 1.000000     C
    C   1.0     0.781196     0.467643     0.820176  Biso 1.000000     C
    C   1.0     0.717570     0.487023     0.858860  Biso 1.000000     C
    C   1.0     0.534744     0.358374     0.762767  Biso 1.000000     C
    C   1.0     0.688563     0.399617     0.772661  Biso 1.000000     C
    C   1.0     0.670017     0.354430     0.729337  Biso 1.000000     C
    C   1.0     0.627452     0.423144     0.812150  Biso 1.000000     C
    C   1.0     0.550827     0.402548     0.805218  Biso 1.000000     C
    C   1.0     0.333402     0.900583     0.555560  Biso 1.000000     C
    C   1.0     0.239689     0.852167     0.578734  Biso 1.000000     C
    C   1.0     0.193338     0.762579     0.626024  Biso 1.000000     C
    C   1.0     0.546039     0.924633     0.415434  Biso 1.000000     C
    C   1.0     0.568886     0.880683     0.366153  Biso 1.000000     C
    C   1.0     0.612487     0.924286     0.276478  Biso 1.000000     C
    C   1.0     0.322876     0.729436     0.938702  Biso 1.000000     C
    C   1.0     0.546178     0.779111     0.795182  Biso 1.000000     C
    C   1.0     0.602791     0.820497     0.708605  Biso 1.000000     C
    C   1.0     0.577203     0.858753     0.651396  Biso 1.000000     C
    C   1.0     0.300615     0.766551     0.877089  Biso 1.000000     C
    C   1.0     0.463810     0.774849     0.824665  Biso 1.000000     C
    C   1.0     0.402843     0.732802     0.913015  Biso 1.000000     C
    C   1.0     0.441536     0.813902     0.762498  Biso 1.000000     C
    C   1.0     0.358225     0.807711     0.790649  Biso 1.000000     C
    C   1.0     0.888855     0.555846     0.544288  Biso 1.000000     C
    C   1.0     0.818367     0.579268     0.569588  Biso 1.000000     C
    C   1.0     0.819066     0.626474     0.612394  Biso 1.000000     C
    C   1.0     0.961629     0.416150     0.659066  Biso 1.000000     C
    C   1.0     0.934580     0.366725     0.751980  Biso 1.000000     C
    C   1.0     0.887143     0.277138     0.797365  Biso 1.000000     C
    C   1.0     0.262067     0.938753     0.332203  Biso 1.000000     C
    C   1.0     0.342351     0.795846     0.424805  Biso 1.000000     C
    C   1.0     0.312292     0.709367     0.470059  Biso 1.000000     C
    C   1.0     0.229096     0.651961     0.489677  Biso 1.000000     C
    C   1.0     0.177759     0.877017     0.357459  Biso 1.000000     C
    C   1.0     0.289187     0.825058     0.400160  Biso 1.000000     C
    C   1.0     0.316684     0.913310     0.353817  Biso 1.000000     C
    C   1.0     0.204303     0.762729     0.424040  Biso 1.000000     C
    C   1.0     0.148822     0.790667     0.402813  Biso 1.000000     C
    C   1.0     0.166666     0.555517     0.900468  Biso 1.000000     C
    C   1.0     0.260464     0.578714     0.852071  Biso 1.000000     C
    C   1.0     0.306978     0.626021     0.762439  Biso 1.000000     C
    C   1.0     0.954055     0.415717     0.924534  Biso 1.000000     C
    C   1.0     0.931228     0.366468     0.880633  Biso 1.000000     C
    C   1.0     0.887617     0.276841     0.924337  Biso 1.000000     C
    C   1.0     0.177186     0.938592     0.729289  Biso 1.000000     C
    C   1.0     0.954069     0.795425     0.778914  Biso 1.000000     C
    C   1.0     0.897424     0.708921     0.820429  Biso 1.000000     C
    C   1.0     0.922921     0.651641     0.858802  Biso 1.000000     C
    C   1.0     0.199355     0.876917     0.766554  Biso 1.000000     C
    C   1.0     0.036325     0.824769     0.774770  Biso 1.000000     C
    C   1.0     0.097326     0.913041     0.732565  Biso 1.000000     C
    C   1.0     0.058528     0.762536     0.813905  Biso 1.000000     C
    C   1.0     0.141717     0.790546     0.807856  Biso 1.000000     C
    C   1.0     0.611019     0.544295     0.555683  Biso 1.000000     C
    C   1.0     0.681346     0.569633     0.579131  Biso 1.000000     C
    C   1.0     0.680304     0.612420     0.626357  Biso 1.000000     C
    C   1.0     0.538339     0.659025     0.415989  Biso 1.000000     C
    C   1.0     0.565457     0.751936     0.366490  Biso 1.000000     C
    C   1.0     0.612851     0.797197     0.276851  Biso 1.000000     C
    C   1.0     0.237410     0.332003     0.938933  Biso 1.000000     C
    C   1.0     0.157219     0.424833     0.796157  Biso 1.000000     C
    C   1.0     0.187411     0.470299     0.709657  Biso 1.000000     C
    C   1.0     0.270731     0.490020     0.652142  Biso 1.000000     C
    C   1.0     0.321899     0.357502     0.877100  Biso 1.000000     C
    C   1.0     0.210375     0.400105     0.825289  Biso 1.000000     C
    C   1.0     0.182738     0.353566     0.913566  Biso 1.000000     C
    C   1.0     0.295423     0.424183     0.762859  Biso 1.000000     C
    C   1.0     0.350939     0.402982     0.790726  Biso 1.000000     C
    C   1.0     0.067395     0.900725     0.543310  Biso 1.000000     C
    C   1.0     0.112525     0.852203     0.568631  Biso 1.000000     C
    C   1.0     0.068951     0.762574     0.611300  Biso 1.000000     C
    C   1.0     0.878487     0.924190     0.659376  Biso 1.000000     C
    C   1.0     0.812235     0.880491     0.752422  Biso 1.000000     C
    C   1.0     0.813134     0.924535     0.798396  Biso 1.000000     C
    C   1.0     0.906334     0.725241     0.333511  Biso 1.000000     C
    C   1.0     0.734075     0.778136     0.423478  Biso 1.000000     C
    C   1.0     0.719137     0.820835     0.467574  Biso 1.000000     C
    C   1.0     0.782718     0.859384     0.486900  Biso 1.000000     C
    C   1.0     0.965511     0.762780     0.358226  Biso 1.000000     C
    C   1.0     0.811695     0.772954     0.399639  Biso 1.000000     C
    C   1.0     0.830257     0.729543     0.354486  Biso 1.000000     C
    C   1.0     0.872791     0.812376     0.423055  Biso 1.000000     C
    C   1.0     0.949391     0.805271     0.402408  Biso 1.000000     C
    C   1.0     0.698068     0.448301     0.103800  Biso 1.000000     C
    C   1.0     0.608409     0.359012     0.281991  Biso 1.000000     C
    C   1.0     0.801769     0.103757     0.448433  Biso 1.000000     C
    C   1.0     0.891116     0.281845     0.359082  Biso 1.000000     C
    C   1.0     0.250041     0.447664     0.447775  Biso 1.000000     C
    C   1.0     0.250383     0.358249     0.358319  Biso 1.000000     C
    C   1.0     0.301914     0.551697     0.896211  Biso 1.000000     C
    C   1.0     0.391569     0.640985     0.718019  Biso 1.000000     C
    C   1.0     0.198209     0.896240     0.551581  Biso 1.000000     C
    C   1.0     0.108864     0.718151     0.640931  Biso 1.000000     C
    C   1.0     0.749937     0.552333     0.552237  Biso 1.000000     C
    C   1.0     0.749596     0.641748     0.641693  Biso 1.000000     C
    C   1.0     0.250024     0.205822     0.205677  Biso 1.000000     C
    C   1.0     0.250204     0.116575     0.115914  Biso 1.000000     C
    C   1.0     0.455162     0.205580     0.589511  Biso 1.000000     C
    C   1.0     0.364789     0.117235     0.767799  Biso 1.000000     C
    C   1.0     0.044736     0.589239     0.205644  Biso 1.000000     C
    C   1.0     0.135125     0.767435     0.117087  Biso 1.000000     C
    C   1.0     0.749954     0.794176     0.794334  Biso 1.000000     C
    C   1.0     0.749776     0.883422     0.884098  Biso 1.000000     C
    C   1.0     0.544811     0.794415     0.410509  Biso 1.000000     C
    C   1.0     0.635188     0.882761     0.232221  Biso 1.000000     C
    C   1.0     0.955245     0.410765     0.794367  Biso 1.000000     C
    C   1.0     0.864854     0.232568     0.882925  Biso 1.000000     C
    N   1.0     0.356770     0.534225     0.144103  Biso 1.000000     N
    N   1.0     0.499866     0.143572     0.323743  Biso 1.000000     N
    N   1.0     0.823374     0.323421     0.532336  Biso 1.000000     N
    N   1.0     0.000072     0.323610     0.143452  Biso 1.000000     N
    N   1.0     0.676763     0.532063     0.323330  Biso 1.000000     N
    N   1.0     0.142961     0.143814     0.534326  Biso 1.000000     N
    N   1.0     0.643209     0.465771     0.855907  Biso 1.000000     N
    N   1.0     0.500112     0.856427     0.676275  Biso 1.000000     N
    N   1.0     0.176607     0.676580     0.467672  Biso 1.000000     N
    N   1.0     0.999909     0.676389     0.856560  Biso 1.000000     N
    N   1.0     0.323212     0.467933     0.676685  Biso 1.000000     N
    N   1.0     0.857016     0.856181     0.465687  Biso 1.000000     N
    O   1.0     0.504832     0.468493     0.135550  Biso 1.000000     O
    O   1.0     0.361357     0.381977     0.113237  Biso 1.000000     O
    O   1.0     0.594009     0.462832     0.025591  Biso 1.000000     O
    O   1.0     0.446411     0.369738     0.000000  Biso 1.000000     O
    O   1.0     0.640410     0.135528     0.396463  Biso 1.000000     O
    O   1.0     0.474215     0.112418     0.506253  Biso 1.000000     O
    O   1.0     0.619605     0.026095     0.511535  Biso 1.000000     O
    O   1.0     0.452011     0.000000     0.625256  Biso 1.000000     O
    O   1.0     0.037048     0.396430     0.466967  Biso 1.000000     O
    O   1.0     0.980137     0.505648     0.381422  Biso 1.000000     O
    O   1.0     0.131112     0.511062     0.462810  Biso 1.000000     O
    O   1.0     0.076910     0.624289     0.370529  Biso 1.000000     O
    O   1.0     0.859492     0.396474     0.135651  Biso 1.000000     O
    O   1.0     0.025490     0.505924     0.112623  Biso 1.000000     O
    O   1.0     0.880308     0.511535     0.026194  Biso 1.000000     O
    O   1.0     0.047747     0.624973     0.000000  Biso 1.000000     O
    O   1.0     0.463127     0.466904     0.396606  Biso 1.000000     O
    O   1.0     0.519952     0.381343     0.505794  Biso 1.000000     O
    O   1.0     0.368805     0.462963     0.511171  Biso 1.000000     O
    O   1.0     0.422920     0.370621     0.624396  Biso 1.000000     O
    O   1.0    -0.005148     0.135520     0.468748  Biso 1.000000     O
    O   1.0     0.138499     0.113150     0.381906  Biso 1.000000     O
    O   1.0     0.906089     0.025702     0.462916  Biso 1.000000     O
    O   1.0     0.053814     0.000000     0.369526  Biso 1.000000     O
    O   1.0     0.495147     0.531501     0.864459  Biso 1.000000     O
    O   1.0     0.638620     0.618022     0.886773  Biso 1.000000     O
    O   1.0     0.405976     0.537169     0.974416  Biso 1.000000     O
    O   1.0     0.553569     0.630259    -0.005828  Biso 1.000000     O
    O   1.0     0.359567     0.864472     0.603555  Biso 1.000000     O
    O   1.0     0.525763     0.887580     0.493766  Biso 1.000000     O
    O   1.0     0.380373     0.973905     0.488483  Biso 1.000000     O
    O   1.0     0.547966    -0.005648     0.374764  Biso 1.000000     O
    O   1.0     0.962931     0.603569     0.533043  Biso 1.000000     O
    O   1.0     0.019847     0.494354     0.618587  Biso 1.000000     O
    O   1.0     0.868868     0.488937     0.537200  Biso 1.000000     O
    O   1.0     0.923071     0.375714     0.629482  Biso 1.000000     O
    O   1.0     0.140489     0.603526     0.864363  Biso 1.000000     O
    O   1.0     0.974489     0.494077     0.887391  Biso 1.000000     O
    O   1.0     0.119673     0.488466     0.973820  Biso 1.000000     O
    O   1.0     0.952237     0.375029    -0.005834  Biso 1.000000     O
    O   1.0     0.536851     0.533093     0.603407  Biso 1.000000     O
    O   1.0     0.480021     0.618652     0.494225  Biso 1.000000     O
    O   1.0     0.631172     0.537032     0.488843  Biso 1.000000     O
    O   1.0     0.577055     0.629375     0.375624  Biso 1.000000     O
    O   1.0     0.000000     0.864475     0.531266  Biso 1.000000     O
    O   1.0     0.861480     0.886848     0.618105  Biso 1.000000     O
    O   1.0     0.093891     0.974295     0.537093  Biso 1.000000     O
    O   1.0     0.946168    -0.005890     0.630487  Biso 1.000000     O
   Zn   1.0     0.444497     0.509108     0.069555  Biso 1.000000    Zn
   Zn   1.0     0.513924     0.069244     0.421963  Biso 1.000000    Zn
   Zn   1.0     0.935937     0.422071     0.508057  Biso 1.000000    Zn
   Zn   1.0     0.986051     0.421923     0.069201  Biso 1.000000    Zn
   Zn   1.0     0.564142     0.507912     0.422112  Biso 1.000000    Zn
   Zn   1.0     0.055303     0.069475     0.509197  Biso 1.000000    Zn
   Zn   1.0     0.555484     0.490889     0.930455  Biso 1.000000    Zn
   Zn   1.0     0.486053     0.930755     0.578056  Biso 1.000000    Zn
   Zn   1.0     0.064043     0.577929     0.491953  Biso 1.000000    Zn
   Zn   1.0     0.013930     0.578077     0.930813  Biso 1.000000    Zn
   Zn   1.0     0.435833     0.492083     0.577905  Biso 1.000000    Zn
   Zn   1.0     0.944676     0.930521     0.490815  Biso 1.000000    Zn
