#======================================================================

# CRYSTAL DATA

#----------------------------------------------------------------------

data_VESTA_phase_1


_pd_phase_name                         MOF
_cell_length_a                         18.59700
_cell_length_b                         22.63000
_cell_length_c                         16.54500
_cell_angle_alpha                      107.03300
_cell_angle_beta                       90.06300
_cell_angle_gamma                      114.03900
_symmetry_space_group_name_H-M         "P 1"
_symmetry_Int_Tables_number            1

loop_
_symmetry_equiv_pos_as_xyz
   "x, y, z"

loop_
   _atom_site_label
   _atom_site_occupancy
   _atom_site_fract_x
   _atom_site_fract_y
   _atom_site_fract_z
   _atom_site_adp_type
   _atom_site_B_iso_or_equiv
   _atom_site_type_symbol
    H   1.0     0.467339     0.267447     0.469531  Biso 1.000000     H
    H   1.0     0.467334     0.767451     0.469531  Biso 1.000000     H
    H   1.0     0.967327     0.267443     0.469530  Biso 1.000000     H
    H   1.0     0.967323     0.767449     0.469531  Biso 1.000000     H
    H   1.0     0.364422     0.429641     0.419029  Biso 1.000000     H
    H   1.0     0.364408     0.929641     0.419034  Biso 1.000000     H
    H   1.0     0.864404     0.429635     0.419032  Biso 1.000000     H
    H   1.0     0.864404     0.929643     0.419030  Biso 1.000000     H
    H   1.0     0.448980     0.459619     0.555304  Biso 1.000000     H
    H   1.0     0.448966     0.959619     0.555308  Biso 1.000000     H
    H   1.0     0.948962     0.459613     0.555307  Biso 1.000000     H
    H   1.0     0.948964     0.959621     0.555304  Biso 1.000000     H
    H   1.0     0.385302     0.192898     0.105340  Biso 1.000000     H
    H   1.0     0.385298     0.692905     0.105339  Biso 1.000000     H
    H   1.0     0.885291     0.192895     0.105340  Biso 1.000000     H
    H   1.0     0.885284     0.692898     0.105341  Biso 1.000000     H
    H   1.0     0.279250     0.217084     0.127829  Biso 1.000000     H
    H   1.0     0.279246     0.717089     0.127829  Biso 1.000000     H
    H   1.0     0.779240     0.217082     0.127828  Biso 1.000000     H
    H   1.0     0.779234     0.717086     0.127829  Biso 1.000000     H
    H   1.0     0.186166     0.098080     0.111483  Biso 1.000000     H
    H   1.0     0.186164     0.598084     0.111481  Biso 1.000000     H
    H   1.0     0.686156     0.098078     0.111481  Biso 1.000000     H
    H   1.0     0.686148     0.598082     0.111483  Biso 1.000000     H
    H   1.0     0.231424     0.104129     0.211306  Biso 1.000000     H
    H   1.0     0.231421     0.604133     0.211304  Biso 1.000000     H
    H   1.0     0.731413     0.104127     0.211305  Biso 1.000000     H
    H   1.0     0.731404     0.604131     0.211307  Biso 1.000000     H
    H   1.0     0.177267     0.153036     0.208749  Biso 1.000000     H
    H   1.0     0.177263     0.653039     0.208748  Biso 1.000000     H
    H   1.0     0.677256     0.153033     0.208747  Biso 1.000000     H
    H   1.0     0.677249     0.653039     0.208749  Biso 1.000000     H
    H   1.0     0.170978     0.441814     0.838083  Biso 1.000000     H
    H   1.0     0.170976     0.941820     0.838082  Biso 1.000000     H
    H   1.0     0.670968     0.441819     0.838081  Biso 1.000000     H
    H   1.0     0.670960     0.941822     0.838082  Biso 1.000000     H
    H   1.0     0.199736     0.233249     0.030305  Biso 1.000000     H
    H   1.0     0.199729     0.733250     0.030305  Biso 1.000000     H
    H   1.0     0.699722     0.233248     0.030308  Biso 1.000000     H
    H   1.0     0.699718     0.733254     0.030307  Biso 1.000000     H
    H   1.0     0.436124     0.071124     0.080999  Biso 1.000000     H
    H   1.0     0.436121     0.571131     0.080998  Biso 1.000000     H
    H   1.0     0.936117     0.071123     0.081001  Biso 1.000000     H
    H   1.0     0.936109     0.571126     0.081001  Biso 1.000000     H
    H   1.0     0.490547     0.041183     0.944623  Biso 1.000000     H
    H   1.0     0.490543     0.541190     0.944622  Biso 1.000000     H
    H   1.0     0.990540     0.041181     0.944625  Biso 1.000000     H
    H   1.0     0.990532     0.541183     0.944625  Biso 1.000000     H
    H   1.0     0.193111     0.307912     0.394047  Biso 1.000000     H
    H   1.0     0.193103     0.807915     0.394047  Biso 1.000000     H
    H   1.0     0.693096     0.307907     0.394049  Biso 1.000000     H
    H   1.0     0.693092     0.807914     0.394049  Biso 1.000000     H
    H   1.0     0.062909     0.283726     0.372377  Biso 1.000000     H
    H   1.0     0.062901     0.783729     0.372376  Biso 1.000000     H
    H   1.0     0.562894     0.283724     0.372379  Biso 1.000000     H
    H   1.0     0.562891     0.783730     0.372378  Biso 1.000000     H
    H   1.0     0.087667     0.402688     0.388738  Biso 1.000000     H
    H   1.0     0.087659     0.902690     0.388736  Biso 1.000000     H
    H   1.0     0.587655     0.402687     0.388741  Biso 1.000000     H
    H   1.0     0.587651     0.902693     0.388740  Biso 1.000000     H
    H   1.0     0.126376     0.396601     0.288727  Biso 1.000000     H
    H   1.0     0.126369     0.896604     0.288725  Biso 1.000000     H
    H   1.0     0.626365     0.396599     0.288730  Biso 1.000000     H
    H   1.0     0.626361     0.896606     0.288729  Biso 1.000000     H
    H   1.0     0.023826     0.347731     0.291649  Biso 1.000000     H
    H   1.0     0.023819     0.847734     0.291647  Biso 1.000000     H
    H   1.0     0.523815     0.347731     0.291651  Biso 1.000000     H
    H   1.0     0.523810     0.847737     0.291651  Biso 1.000000     H
    H   1.0     0.229806     0.057316     0.662366  Biso 1.000000     H
    H   1.0     0.229799     0.557320     0.662366  Biso 1.000000     H
    H   1.0     0.729788     0.057318     0.662363  Biso 1.000000     H
    H   1.0     0.729785     0.557323     0.662363  Biso 1.000000     H
    H   1.0     0.032655     0.232582     0.530502  Biso 1.000000     H
    H   1.0     0.032652     0.732587     0.530500  Biso 1.000000     H
    H   1.0     0.532646     0.232587     0.530499  Biso 1.000000     H
    H   1.0     0.532636     0.732589     0.530502  Biso 1.000000     H
    H   1.0     0.135581     0.070392     0.580999  Biso 1.000000     H
    H   1.0     0.135572     0.570394     0.581001  Biso 1.000000     H
    H   1.0     0.635563     0.070392     0.581001  Biso 1.000000     H
    H   1.0     0.635562     0.570399     0.581000  Biso 1.000000     H
    H   1.0     0.051022     0.040413     0.444726  Biso 1.000000     H
    H   1.0     0.051013     0.540416     0.444727  Biso 1.000000     H
    H   1.0     0.551005     0.040414     0.444727  Biso 1.000000     H
    H   1.0     0.551002     0.540420     0.444727  Biso 1.000000     H
    H   1.0     0.114698     0.307141     0.894690  Biso 1.000000     H
    H   1.0     0.114694     0.807149     0.894689  Biso 1.000000     H
    H   1.0     0.614687     0.307150     0.894689  Biso 1.000000     H
    H   1.0     0.614679     0.807151     0.894689  Biso 1.000000     H
    H   1.0     0.220745     0.282951     0.872205  Biso 1.000000     H
    H   1.0     0.220740     0.782955     0.872205  Biso 1.000000     H
    H   1.0     0.720732     0.282954     0.872205  Biso 1.000000     H
    H   1.0     0.720726     0.782958     0.872206  Biso 1.000000     H
    H   1.0     0.313834     0.401951     0.888542  Biso 1.000000     H
    H   1.0     0.313831     0.901955     0.888539  Biso 1.000000     H
    H   1.0     0.813825     0.401953     0.888537  Biso 1.000000     H
    H   1.0     0.813816     0.901958     0.888542  Biso 1.000000     H
    H   1.0     0.268576     0.395900     0.788718  Biso 1.000000     H
    H   1.0     0.268573     0.895903     0.788715  Biso 1.000000     H
    H   1.0     0.768566     0.395901     0.788713  Biso 1.000000     H
    H   1.0     0.768559     0.895906     0.788717  Biso 1.000000     H
    H   1.0     0.322730     0.346991     0.791277  Biso 1.000000     H
    H   1.0     0.322725     0.846994     0.791275  Biso 1.000000     H
    H   1.0     0.822717     0.346990     0.791274  Biso 1.000000     H
    H   1.0     0.822712     0.846997     0.791279  Biso 1.000000     H
    H   1.0     0.329021     0.058219     0.161945  Biso 1.000000     H
    H   1.0     0.329018     0.558227     0.161945  Biso 1.000000     H
    H   1.0     0.829011     0.058219     0.161946  Biso 1.000000     H
    H   1.0     0.829003     0.558221     0.161947  Biso 1.000000     H
    H   1.0     0.300264     0.266786     0.969728  Biso 1.000000     H
    H   1.0     0.300256     0.766788     0.969727  Biso 1.000000     H
    H   1.0     0.800248     0.266783     0.969726  Biso 1.000000     H
    H   1.0     0.800245     0.766789     0.969726  Biso 1.000000     H
    H   1.0     0.063871     0.428902     0.919031  Biso 1.000000     H
    H   1.0     0.063868     0.928908     0.919030  Biso 1.000000     H
    H   1.0     0.563857     0.428907     0.919028  Biso 1.000000     H
    H   1.0     0.563850     0.928910     0.919028  Biso 1.000000     H
    H   1.0     0.009448     0.458848     0.055406  Biso 1.000000     H
    H   1.0     0.009444     0.958854     0.055405  Biso 1.000000     H
    H   1.0     0.509434     0.458854     0.055402  Biso 1.000000     H
    H   1.0     0.509426     0.958856     0.055403  Biso 1.000000     H
    H   1.0     0.306890     0.192119     0.605985  Biso 1.000000     H
    H   1.0     0.306882     0.692123     0.605986  Biso 1.000000     H
    H   1.0     0.806875     0.192122     0.605984  Biso 1.000000     H
    H   1.0     0.806873     0.692127     0.605983  Biso 1.000000     H
    H   1.0     0.437091     0.216303     0.627657  Biso 1.000000     H
    H   1.0     0.437083     0.716307     0.627656  Biso 1.000000     H
    H   1.0     0.937076     0.216304     0.627655  Biso 1.000000     H
    H   1.0     0.937073     0.716309     0.627655  Biso 1.000000     H
    H   1.0     0.412331     0.097341     0.611294  Biso 1.000000     H
    H   1.0     0.412324     0.597345     0.611292  Biso 1.000000     H
    H   1.0     0.912312     0.097340     0.611288  Biso 1.000000     H
    H   1.0     0.912309     0.597345     0.611289  Biso 1.000000     H
    H   1.0     0.373621     0.103427     0.711304  Biso 1.000000     H
    H   1.0     0.373614     0.603430     0.711303  Biso 1.000000     H
    H   1.0     0.873603     0.103426     0.711299  Biso 1.000000     H
    H   1.0     0.873599     0.603431     0.711299  Biso 1.000000     H
    H   1.0     0.476171     0.152296     0.708384  Biso 1.000000     H
    H   1.0     0.476164     0.652300     0.708381  Biso 1.000000     H
    H   1.0     0.976154     0.152294     0.708378  Biso 1.000000     H
    H   1.0     0.976150     0.652299     0.708379  Biso 1.000000     H
    H   1.0     0.270189     0.442714     0.337659  Biso 1.000000     H
    H   1.0     0.270181     0.942717     0.337658  Biso 1.000000     H
    H   1.0     0.770177     0.442711     0.337662  Biso 1.000000     H
    H   1.0     0.770174     0.942717     0.337662  Biso 1.000000     H
    C   1.0     0.445306     0.302553     0.458587  Biso 1.000000     C
    C   1.0     0.445298     0.802556     0.458588  Biso 1.000000     C
    C   1.0     0.945292     0.302549     0.458587  Biso 1.000000     C
    C   1.0     0.945290     0.802555     0.458587  Biso 1.000000     C
    C   1.0     0.012472     0.384950     0.603362  Biso 1.000000     C
    C   1.0     0.012463     0.884954     0.603364  Biso 1.000000     C
    C   1.0     0.512454     0.384952     0.603364  Biso 1.000000     C
    C   1.0     0.512453     0.884957     0.603362  Biso 1.000000     C
    C   1.0     0.462020     0.365317     0.520988  Biso 1.000000     C
    C   1.0     0.462019     0.865323     0.520986  Biso 1.000000     C
    C   1.0     0.962012     0.365316     0.520986  Biso 1.000000     C
    C   1.0     0.962003     0.865319     0.520989  Biso 1.000000     C
    C   1.0     0.385852     0.394163     0.430155  Biso 1.000000     C
    C   1.0     0.385842     0.894165     0.430157  Biso 1.000000     C
    C   1.0     0.885837     0.394159     0.430157  Biso 1.000000     C
    C   1.0     0.885835     0.894165     0.430155  Biso 1.000000     C
    C   1.0     0.400358     0.286821     0.381471  Biso 1.000000     C
    C   1.0     0.400354     0.786826     0.381471  Biso 1.000000     C
    C   1.0     0.900347     0.286819     0.381470  Biso 1.000000     C
    C   1.0     0.900341     0.786823     0.381471  Biso 1.000000     C
    C   1.0     0.334091     0.241866     0.253409  Biso 1.000000     C
    C   1.0     0.334085     0.741870     0.253409  Biso 1.000000     C
    C   1.0     0.834079     0.241863     0.253409  Biso 1.000000     C
    C   1.0     0.834073     0.741867     0.253410  Biso 1.000000     C
    C   1.0     0.368831     0.331198     0.367662  Biso 1.000000     C
    C   1.0     0.368821     0.831200     0.367664  Biso 1.000000     C
    C   1.0     0.868816     0.331194     0.367663  Biso 1.000000     C
    C   1.0     0.868813     0.831200     0.367662  Biso 1.000000     C
    C   1.0     0.433101     0.410717     0.505788  Biso 1.000000     C
    C   1.0     0.433088     0.910717     0.505792  Biso 1.000000     C
    C   1.0     0.933083     0.410711     0.505791  Biso 1.000000     C
    C   1.0     0.933085     0.910719     0.505788  Biso 1.000000     C
    C   1.0     0.293292     0.190524     0.167238  Biso 1.000000     C
    C   1.0     0.293288     0.690529     0.167237  Biso 1.000000     C
    C   1.0     0.793281     0.190522     0.167236  Biso 1.000000     C
    C   1.0     0.793274     0.690526     0.167238  Biso 1.000000     C
    C   1.0     0.217216     0.132629     0.175218  Biso 1.000000     C
    C   1.0     0.217213     0.632633     0.175217  Biso 1.000000     C
    C   1.0     0.717205     0.132627     0.175217  Biso 1.000000     C
    C   1.0     0.717197     0.632631     0.175219  Biso 1.000000     C
    C   1.0     0.142912     0.198163     0.041266  Biso 1.000000     C
    C   1.0     0.142905     0.698164     0.041266  Biso 1.000000     C
    C   1.0     0.642898     0.198162     0.041268  Biso 1.000000     C
    C   1.0     0.642894     0.698169     0.041267  Biso 1.000000     C
    C   1.0     0.128001     0.115615     0.896583  Biso 1.000000     C
    C   1.0     0.127995     0.615616     0.896584  Biso 1.000000     C
    C   1.0     0.627987     0.115615     0.896584  Biso 1.000000     C
    C   1.0     0.627985     0.615620     0.896584  Biso 1.000000     C
    C   1.0     0.097235     0.135410     0.978930  Biso 1.000000     C
    C   1.0     0.097228     0.635411     0.978930  Biso 1.000000     C
    C   1.0     0.597220     0.135409     0.978931  Biso 1.000000     C
    C   1.0     0.597218     0.635415     0.978931  Biso 1.000000     C
    C   1.0     0.492695     0.106584     0.069828  Biso 1.000000     C
    C   1.0     0.492693     0.606590     0.069827  Biso 1.000000     C
    C   1.0     0.992687     0.106583     0.069829  Biso 1.000000     C
    C   1.0     0.992679     0.606585     0.069829  Biso 1.000000     C
    C   1.0     0.113761     0.213900     0.118417  Biso 1.000000     C
    C   1.0     0.113754     0.713902     0.118417  Biso 1.000000     C
    C   1.0     0.613747     0.213898     0.118419  Biso 1.000000     C
    C   1.0     0.613744     0.713905     0.118418  Biso 1.000000     C
    C   1.0     0.092434     0.258843     0.246535  Biso 1.000000     C
    C   1.0     0.092426     0.758846     0.246535  Biso 1.000000     C
    C   1.0     0.592420     0.258842     0.246538  Biso 1.000000     C
    C   1.0     0.592416     0.758848     0.246536  Biso 1.000000     C
    C   1.0     0.038310     0.169525     0.132316  Biso 1.000000     C
    C   1.0     0.038303     0.669527     0.132316  Biso 1.000000     C
    C   1.0     0.538295     0.169524     0.132317  Biso 1.000000     C
    C   1.0     0.538291     0.669532     0.132316  Biso 1.000000     C
    C   1.0     0.023320     0.090056     0.994164  Biso 1.000000     C
    C   1.0     0.023313     0.590058     0.994164  Biso 1.000000     C
    C   1.0     0.523303     0.090057     0.994163  Biso 1.000000     C
    C   1.0     0.523299     0.590064     0.994161  Biso 1.000000     C
    C   1.0     0.102952     0.310219     0.332739  Biso 1.000000     C
    C   1.0     0.102945     0.810221     0.332738  Biso 1.000000     C
    C   1.0     0.602938     0.310217     0.332742  Biso 1.000000     C
    C   1.0     0.602935     0.810223     0.332741  Biso 1.000000     C
    C   1.0     0.084153     0.368116     0.324954  Biso 1.000000     C
    C   1.0     0.084146     0.868119     0.324952  Biso 1.000000     C
    C   1.0     0.584141     0.368115     0.324956  Biso 1.000000     C
    C   1.0     0.584137     0.868121     0.324956  Biso 1.000000     C
    C   1.0     0.054690     0.197476     0.541445  Biso 1.000000     C
    C   1.0     0.054686     0.697482     0.541444  Biso 1.000000     C
    C   1.0     0.554682     0.197482     0.541442  Biso 1.000000     C
    C   1.0     0.554671     0.697484     0.541446  Biso 1.000000     C
    C   1.0     0.487512     0.115075     0.396676  Biso 1.000000     C
    C   1.0     0.487521     0.615084     0.396670  Biso 1.000000     C
    C   1.0     0.987514     0.115077     0.396669  Biso 1.000000     C
    C   1.0     0.987504     0.615080     0.396671  Biso 1.000000     C
    C   1.0     0.037974     0.134711     0.479045  Biso 1.000000     C
    C   1.0     0.037964     0.634713     0.479047  Biso 1.000000     C
    C   1.0     0.537947     0.134708     0.479051  Biso 1.000000     C
    C   1.0     0.537956     0.634719     0.479045  Biso 1.000000     C
    C   1.0     0.114148     0.105869     0.569875  Biso 1.000000     C
    C   1.0     0.114139     0.605871     0.569877  Biso 1.000000     C
    C   1.0     0.614129     0.105869     0.569877  Biso 1.000000     C
    C   1.0     0.614129     0.605876     0.569876  Biso 1.000000     C
    C   1.0     0.099637     0.213208     0.618561  Biso 1.000000     C
    C   1.0     0.099631     0.713212     0.618561  Biso 1.000000     C
    C   1.0     0.599622     0.213210     0.618562  Biso 1.000000     C
    C   1.0     0.599619     0.713215     0.618561  Biso 1.000000     C
    C   1.0     0.165907     0.258165     0.746622  Biso 1.000000     C
    C   1.0     0.165902     0.758169     0.746621  Biso 1.000000     C
    C   1.0     0.665895     0.258168     0.746621  Biso 1.000000     C
    C   1.0     0.665888     0.758172     0.746622  Biso 1.000000     C
    C   1.0     0.131168     0.168833     0.632369  Biso 1.000000     C
    C   1.0     0.131162     0.668837     0.632369  Biso 1.000000     C
    C   1.0     0.631156     0.168836     0.632368  Biso 1.000000     C
    C   1.0     0.631149     0.668840     0.632370  Biso 1.000000     C
    C   1.0     0.066899     0.089315     0.494242  Biso 1.000000     C
    C   1.0     0.066893     0.589319     0.494242  Biso 1.000000     C
    C   1.0     0.566887     0.089318     0.494240  Biso 1.000000     C
    C   1.0     0.566880     0.589322     0.494242  Biso 1.000000     C
    C   1.0     0.206705     0.309508     0.832792  Biso 1.000000     C
    C   1.0     0.206701     0.809513     0.832791  Biso 1.000000     C
    C   1.0     0.706693     0.309512     0.832790  Biso 1.000000     C
    C   1.0     0.706687     0.809516     0.832792  Biso 1.000000     C
    C   1.0     0.282782     0.367401     0.824807  Biso 1.000000     C
    C   1.0     0.282779     0.867404     0.824805  Biso 1.000000     C
    C   1.0     0.782772     0.367402     0.824804  Biso 1.000000     C
    C   1.0     0.782765     0.867408     0.824808  Biso 1.000000     C
    C   1.0     0.357087     0.301871     0.958766  Biso 1.000000     C
    C   1.0     0.357079     0.801873     0.958765  Biso 1.000000     C
    C   1.0     0.857073     0.301867     0.958765  Biso 1.000000     C
    C   1.0     0.857069     0.801874     0.958764  Biso 1.000000     C
    C   1.0     0.371995     0.384425     0.103445  Biso 1.000000     C
    C   1.0     0.371989     0.884425     0.103446  Biso 1.000000     C
    C   1.0     0.871980     0.384420     0.103444  Biso 1.000000     C
    C   1.0     0.871979     0.884426     0.103446  Biso 1.000000     C
    C   1.0     0.402762     0.364627     0.021098  Biso 1.000000     C
    C   1.0     0.402756     0.864628     0.021100  Biso 1.000000     C
    C   1.0     0.902747     0.364623     0.021098  Biso 1.000000     C
    C   1.0     0.902746     0.864628     0.021099  Biso 1.000000     C
    C   1.0     0.007299     0.393444     0.930202  Biso 1.000000     C
    C   1.0     0.007296     0.893450     0.930202  Biso 1.000000     C
    C   1.0     0.507287     0.393449     0.930201  Biso 1.000000     C
    C   1.0     0.507280     0.893452     0.930201  Biso 1.000000     C
    C   1.0     0.386237     0.286132     0.881615  Biso 1.000000     C
    C   1.0     0.386230     0.786135     0.881615  Biso 1.000000     C
    C   1.0     0.886222     0.286130     0.881613  Biso 1.000000     C
    C   1.0     0.886219     0.786136     0.881614  Biso 1.000000     C
    C   1.0     0.407566     0.241186     0.753498  Biso 1.000000     C
    C   1.0     0.407558     0.741190     0.753497  Biso 1.000000     C
    C   1.0     0.907550     0.241185     0.753496  Biso 1.000000     C
    C   1.0     0.907547     0.741191     0.753496  Biso 1.000000     C
    C   1.0     0.461689     0.330506     0.867715  Biso 1.000000     C
    C   1.0     0.461681     0.830509     0.867715  Biso 1.000000     C
    C   1.0     0.961675     0.330502     0.867716  Biso 1.000000     C
    C   1.0     0.961672     0.830509     0.867715  Biso 1.000000     C
    C   1.0     0.476679     0.409978     0.005865  Biso 1.000000     C
    C   1.0     0.476671     0.909981     0.005865  Biso 1.000000     C
    C   1.0     0.976667     0.409973     0.005868  Biso 1.000000     C
    C   1.0     0.976663     0.909979     0.005867  Biso 1.000000     C
    C   1.0     0.397047     0.189811     0.667294  Biso 1.000000     C
    C   1.0     0.397040     0.689814     0.667293  Biso 1.000000     C
    C   1.0     0.897031     0.189811     0.667291  Biso 1.000000     C
    C   1.0     0.897028     0.689816     0.667291  Biso 1.000000     C
    C   1.0     0.415845     0.131913     0.675078  Biso 1.000000     C
    C   1.0     0.415838     0.631916     0.675077  Biso 1.000000     C
    C   1.0     0.915827     0.131911     0.675073  Biso 1.000000     C
    C   1.0     0.915824     0.631917     0.675074  Biso 1.000000     C
    N   1.0     0.378497     0.231035     0.307277  Biso 1.000000     N
    N   1.0     0.378490     0.731039     0.307277  Biso 1.000000     N
    N   1.0     0.878484     0.231032     0.307277  Biso 1.000000     N
    N   1.0     0.878479     0.731037     0.307277  Biso 1.000000     N
    N   1.0     0.326066     0.301007     0.286039  Biso 1.000000     N
    N   1.0     0.326059     0.801011     0.286040  Biso 1.000000     N
    N   1.0     0.826053     0.301004     0.286039  Biso 1.000000     N
    N   1.0     0.826048     0.801009     0.286040  Biso 1.000000     N
    N   1.0     0.147392     0.269690     0.192590  Biso 1.000000     N
    N   1.0     0.147385     0.769693     0.192590  Biso 1.000000     N
    N   1.0     0.647379     0.269688     0.192592  Biso 1.000000     N
    N   1.0     0.647374     0.769695     0.192591  Biso 1.000000     N
    N   1.0     0.025727     0.199681     0.214003  Biso 1.000000     N
    N   1.0     0.025720     0.699684     0.214003  Biso 1.000000     N
    N   1.0     0.525712     0.199680     0.214004  Biso 1.000000     N
    N   1.0     0.525709     0.699687     0.214003  Biso 1.000000     N
    N   1.0     0.121500     0.268995     0.692755  Biso 1.000000     N
    N   1.0     0.121497     0.769000     0.692753  Biso 1.000000     N
    N   1.0     0.621492     0.269001     0.692752  Biso 1.000000     N
    N   1.0     0.621482     0.769002     0.692755  Biso 1.000000     N
    N   1.0     0.173933     0.199024     0.713992  Biso 1.000000     N
    N   1.0     0.173926     0.699027     0.713992  Biso 1.000000     N
    N   1.0     0.673916     0.199025     0.713993  Biso 1.000000     N
    N   1.0     0.673914     0.699031     0.713992  Biso 1.000000     N
    N   1.0     0.352607     0.230340     0.807443  Biso 1.000000     N
    N   1.0     0.352600     0.730343     0.807442  Biso 1.000000     N
    N   1.0     0.852592     0.230338     0.807441  Biso 1.000000     N
    N   1.0     0.852588     0.730345     0.807441  Biso 1.000000     N
    N   1.0     0.474272     0.300349     0.786029  Biso 1.000000     N
    N   1.0     0.474265     0.800352     0.786029  Biso 1.000000     N
    N   1.0     0.974257     0.300347     0.786028  Biso 1.000000     N
    N   1.0     0.974255     0.800352     0.786028  Biso 1.000000     N
    O   1.0     0.037224     0.446896     0.652071  Biso 1.000000     O
    O   1.0     0.037224     0.946902     0.652068  Biso 1.000000     O
    O   1.0     0.537214     0.446900     0.652068  Biso 1.000000     O
    O   1.0     0.537205     0.946903     0.652072  Biso 1.000000     O
    O   1.0     0.146757     0.431757     0.780799  Biso 1.000000     O
    O   1.0     0.146752     0.931763     0.780799  Biso 1.000000     O
    O   1.0     0.646742     0.431762     0.780799  Biso 1.000000     O
    O   1.0     0.646738     0.931765     0.780799  Biso 1.000000     O
    O   1.0     0.027607     0.338647     0.618637  Biso 1.000000     O
    O   1.0     0.027608     0.838654     0.618635  Biso 1.000000     O
    O   1.0     0.527598     0.338651     0.618635  Biso 1.000000     O
    O   1.0     0.527587     0.838654     0.618638  Biso 1.000000     O
    O   1.0     0.343811     0.159755     0.125810  Biso 1.000000     O
    O   1.0     0.343808     0.659761     0.125808  Biso 1.000000     O
    O   1.0     0.843800     0.159752     0.125809  Biso 1.000000     O
    O   1.0     0.843792     0.659755     0.125811  Biso 1.000000     O
    O   1.0     0.090554     0.053843     0.847581  Biso 1.000000     O
    O   1.0     0.090549     0.553844     0.847584  Biso 1.000000     O
    O   1.0     0.590538     0.053844     0.847581  Biso 1.000000     O
    O   1.0     0.590534     0.553851     0.847579  Biso 1.000000     O
    O   1.0     0.215692     0.067591     0.719641  Biso 1.000000     O
    O   1.0     0.215687     0.567594     0.719641  Biso 1.000000     O
    O   1.0     0.715678     0.067592     0.719639  Biso 1.000000     O
    O   1.0     0.715674     0.567598     0.719639  Biso 1.000000     O
    O   1.0     0.189620     0.161530     0.881576  Biso 1.000000     O
    O   1.0     0.189613     0.661532     0.881576  Biso 1.000000     O
    O   1.0     0.689605     0.161531     0.881577  Biso 1.000000     O
    O   1.0     0.689601     0.661538     0.881576  Biso 1.000000     O
    O   1.0     0.184221     0.341030     0.373722  Biso 1.000000     O
    O   1.0     0.184214     0.841033     0.373722  Biso 1.000000     O
    O   1.0     0.684207     0.341027     0.373726  Biso 1.000000     O
    O   1.0     0.684204     0.841034     0.373726  Biso 1.000000     O
    O   1.0     0.462772     0.053132     0.347958  Biso 1.000000     O
    O   1.0     0.462762     0.553137     0.347964  Biso 1.000000     O
    O   1.0     0.962755     0.053129     0.347964  Biso 1.000000     O
    O   1.0     0.962752     0.553134     0.347962  Biso 1.000000     O
    O   1.0     0.353231     0.068276     0.219235  Biso 1.000000     O
    O   1.0     0.353227     0.568283     0.219235  Biso 1.000000     O
    O   1.0     0.853220     0.068275     0.219235  Biso 1.000000     O
    O   1.0     0.853215     0.568278     0.219235  Biso 1.000000     O
    O   1.0     0.472392     0.161382     0.381392  Biso 1.000000     O
    O   1.0     0.472381     0.661386     0.381396  Biso 1.000000     O
    O   1.0     0.972375     0.161379     0.381396  Biso 1.000000     O
    O   1.0     0.972371     0.661383     0.381395  Biso 1.000000     O
    O   1.0     0.156187     0.340281     0.874214  Biso 1.000000     O
    O   1.0     0.156184     0.840287     0.874213  Biso 1.000000     O
    O   1.0     0.656177     0.340287     0.874211  Biso 1.000000     O
    O   1.0     0.656169     0.840289     0.874213  Biso 1.000000     O
    O   1.0     0.409434     0.446200     0.152438  Biso 1.000000     O
    O   1.0     0.409429     0.946201     0.152439  Biso 1.000000     O
    O   1.0     0.909424     0.446194     0.152442  Biso 1.000000     O
    O   1.0     0.909419     0.946200     0.152440  Biso 1.000000     O
    O   1.0     0.284306     0.432440     0.280386  Biso 1.000000     O
    O   1.0     0.284299     0.932443     0.280386  Biso 1.000000     O
    O   1.0     0.784292     0.432436     0.280388  Biso 1.000000     O
    O   1.0     0.784289     0.932442     0.280388  Biso 1.000000     O
    O   1.0     0.310386     0.338505     0.118460  Biso 1.000000     O
    O   1.0     0.310377     0.838507     0.118459  Biso 1.000000     O
    O   1.0     0.810372     0.338500     0.118460  Biso 1.000000     O
    O   1.0     0.810368     0.838506     0.118460  Biso 1.000000     O
    O   1.0     0.315779     0.159000     0.626309  Biso 1.000000     O
    O   1.0     0.315771     0.659003     0.626308  Biso 1.000000     O
    O   1.0     0.815763     0.159001     0.626305  Biso 1.000000     O
    O   1.0     0.815760     0.659007     0.626305  Biso 1.000000     O
   Zn   1.0     0.072678     0.335902     0.729329  Biso 1.000000    Zn
   Zn   1.0     0.072675     0.835908     0.729328  Biso 1.000000    Zn
   Zn   1.0     0.572667     0.335907     0.729328  Biso 1.000000    Zn
   Zn   1.0     0.572659     0.835910     0.729329  Biso 1.000000    Zn
   Zn   1.0     0.237406     0.163649     0.770754  Biso 1.000000    Zn
   Zn   1.0     0.237399     0.663652     0.770754  Biso 1.000000    Zn
   Zn   1.0     0.737390     0.163649     0.770754  Biso 1.000000    Zn
   Zn   1.0     0.737387     0.663655     0.770753  Biso 1.000000    Zn
   Zn   1.0     0.427317     0.164128     0.270704  Biso 1.000000    Zn
   Zn   1.0     0.427314     0.664134     0.270705  Biso 1.000000    Zn
   Zn   1.0     0.927307     0.164127     0.270704  Biso 1.000000    Zn
   Zn   1.0     0.927300     0.664130     0.270704  Biso 1.000000    Zn
   Zn   1.0     0.262593     0.336381     0.229278  Biso 1.000000    Zn
   Zn   1.0     0.262587     0.836384     0.229278  Biso 1.000000    Zn
   Zn   1.0     0.762580     0.336378     0.229279  Biso 1.000000    Zn
   Zn   1.0     0.762577     0.836383     0.229278  Biso 1.000000    Zn
   Zn   1.0     0.124665     0.000064     0.749992  Biso 1.000000    Zn
   Zn   1.0     0.124660     0.500066     0.749992  Biso 1.000000    Zn
   Zn   1.0     0.624651     0.000066     0.749992  Biso 1.000000    Zn
   Zn   1.0     0.624648     0.500072     0.749992  Biso 1.000000    Zn
   Zn   1.0     0.375332    -0.000031     0.250040  Biso 1.000000    Zn
   Zn   1.0     0.375328     0.499976     0.250040  Biso 1.000000    Zn
   Zn   1.0     0.875320    -0.000032     0.250040  Biso 1.000000    Zn
   Zn   1.0     0.875316     0.499970     0.250040  Biso 1.000000    Zn
