#======================================================================

# CRYSTAL DATA

#----------------------------------------------------------------------

data_VESTA_phase_1


_pd_phase_name                         MOF
_cell_length_a                         20.89600
_cell_length_b                         17.72300
_cell_length_c                         17.72400
_cell_angle_alpha                      119.96200
_cell_angle_beta                       89.99500
_cell_angle_gamma                      90.00800
_symmetry_space_group_name_H-M         "P 1"
_symmetry_Int_Tables_number            1

loop_
_symmetry_equiv_pos_as_xyz
   "x, y, z"

loop_
   _atom_site_label
   _atom_site_occupancy
   _atom_site_fract_x
   _atom_site_fract_y
   _atom_site_fract_z
   _atom_site_adp_type
   _atom_site_B_iso_or_equiv
   _atom_site_type_symbol
    H   1.0     0.469780     0.469270     0.344582  Biso 1.000000     H
    H   1.0     0.969783     0.469284     0.344589  Biso 1.000000     H
    H   1.0     0.434204     0.424653     0.192783  Biso 1.000000     H
    H   1.0     0.934206     0.424669     0.192790  Biso 1.000000     H
    H   1.0     0.129383     0.466716     0.139953  Biso 1.000000     H
    H   1.0     0.629388     0.466710     0.139949  Biso 1.000000     H
    H   1.0     0.155676     0.510626     0.292735  Biso 1.000000     H
    H   1.0     0.655681     0.510620     0.292731  Biso 1.000000     H
    H   1.0     0.043830     0.370085     0.015025  Biso 1.000000     H
    H   1.0     0.543836     0.370077     0.015019  Biso 1.000000     H
    H   1.0     0.462005     0.392681     0.045962  Biso 1.000000     H
    H   1.0     0.962008     0.392690     0.045967  Biso 1.000000     H
    H   1.0     0.459006     0.569223     0.163379  Biso 1.000000     H
    H   1.0     0.959011     0.569234     0.163381  Biso 1.000000     H
    H   1.0     0.033675     0.672307     0.155522  Biso 1.000000     H
    H   1.0     0.533681     0.672298     0.155528  Biso 1.000000     H
    H   1.0     0.453968     0.702959     0.150973  Biso 1.000000     H
    H   1.0     0.953971     0.702965     0.150966  Biso 1.000000     H
    H   1.0     0.500714     0.650520     0.053219  Biso 1.000000     H
    H   1.0     0.000000     0.650522     0.053211  Biso 1.000000     H
    H   1.0     0.060690     0.518967     0.060125  Biso 1.000000     H
    H   1.0     0.560694     0.518960     0.060123  Biso 1.000000     H
    H   1.0     0.303085     0.875566     0.531280  Biso 1.000000     H
    H   1.0     0.803090     0.875573     0.531299  Biso 1.000000     H
    H   1.0     0.267512     0.768269     0.575835  Biso 1.000000     H
    H   1.0     0.767516     0.768274     0.575851  Biso 1.000000     H
    H   1.0     0.462692     0.673459     0.533723  Biso 1.000000     H
    H   1.0     0.962695     0.673461     0.533736  Biso 1.000000     H
    H   1.0     0.488972     0.782426     0.489864  Biso 1.000000     H
    H   1.0     0.988977     0.782430     0.489881  Biso 1.000000     H
    H   1.0     0.377083     0.644914     0.630294  Biso 1.000000     H
    H   1.0     0.877085     0.644912     0.630302  Biso 1.000000     H
    H   1.0     0.295275     0.653155     0.607519  Biso 1.000000     H
    H   1.0     0.795277     0.653154     0.607526  Biso 1.000000     H
    H   1.0     0.292539     0.594517     0.431023  Biso 1.000000     H
    H   1.0     0.792543     0.594523     0.431033  Biso 1.000000     H
    H   1.0     0.367214     0.483763     0.327999  Biso 1.000000     H
    H   1.0     0.867220     0.483776     0.328006  Biso 1.000000     H
    H   1.0     0.287513     0.448603     0.297208  Biso 1.000000     H
    H   1.0     0.787520     0.448613     0.297212  Biso 1.000000     H
    H   1.0     0.334171     0.403121     0.349613  Biso 1.000000     H
    H   1.0     0.834179     0.403128     0.349614  Biso 1.000000     H
    H   1.0     0.394121     0.541451     0.481390  Biso 1.000000     H
    H   1.0     0.894125     0.541454     0.481396  Biso 1.000000     H
    H   1.0     0.136378     0.655634     0.124632  Biso 1.000000     H
    H   1.0     0.636383     0.655636     0.124628  Biso 1.000000     H
    H   1.0     0.100822     0.807352     0.231928  Biso 1.000000     H
    H   1.0     0.600828     0.807355     0.231924  Biso 1.000000     H
    H   1.0     0.296028     0.859998     0.326669  Biso 1.000000     H
    H   1.0     0.796032     0.859994     0.326673  Biso 1.000000     H
    H   1.0     0.322294     0.707300     0.217693  Biso 1.000000     H
    H   1.0     0.822297     0.707297     0.217697  Biso 1.000000     H
    H   1.0     0.210422     0.985022     0.354968  Biso 1.000000     H
    H   1.0     0.710428     0.985022     0.354970  Biso 1.000000     H
    H   1.0     0.128611     0.954022     0.346810  Biso 1.000000     H
    H   1.0     0.628617     0.954023     0.346811  Biso 1.000000     H
    H   1.0     0.125837     0.836508     0.406020  Biso 1.000000     H
    H   1.0     0.625842     0.836506     0.406016  Biso 1.000000     H
    H   1.0     0.200482     0.844674     0.517097  Biso 1.000000     H
    H   1.0     0.700484     0.844670     0.517095  Biso 1.000000     H
    H   1.0     0.120749     0.849038     0.552172  Biso 1.000000     H
    H   1.0     0.620751     0.849032     0.552167  Biso 1.000000     H
    H   1.0     0.167358     0.946927     0.597383  Biso 1.000000     H
    H   1.0     0.667359     0.946922     0.597381  Biso 1.000000     H
    H   1.0     0.227447     0.939865     0.458759  Biso 1.000000     H
    H   1.0     0.727452     0.939862     0.458760  Biso 1.000000     H
    H   1.0     0.219781     0.530676     0.655422  Biso 1.000000     H
    H   1.0     0.719784     0.530668     0.655420  Biso 1.000000     H
    H   1.0     0.184235     0.575321     0.807246  Biso 1.000000     H
    H   1.0     0.684238     0.575316     0.807244  Biso 1.000000     H
    H   1.0     0.379425     0.533280     0.860006  Biso 1.000000     H
    H   1.0     0.879429     0.533281     0.860007  Biso 1.000000     H
    H   1.0     0.405686     0.489334     0.707201  Biso 1.000000     H
    H   1.0     0.905690     0.489332     0.707201  Biso 1.000000     H
    H   1.0     0.293924     0.629895     0.984961  Biso 1.000000     H
    H   1.0     0.793928     0.629894     0.984961  Biso 1.000000     H
    H   1.0     0.212078     0.607358     0.954078  Biso 1.000000     H
    H   1.0     0.712082     0.607357     0.954077  Biso 1.000000     H
    H   1.0     0.209029     0.430770     0.836624  Biso 1.000000     H
    H   1.0     0.709034     0.430769     0.836624  Biso 1.000000     H
    H   1.0     0.283612     0.327652     0.844538  Biso 1.000000     H
    H   1.0     0.783618     0.327652     0.844537  Biso 1.000000     H
    H   1.0     0.203867     0.297086     0.849104  Biso 1.000000     H
    H   1.0     0.703873     0.297085     0.849103  Biso 1.000000     H
    H   1.0     0.250608     0.349517     0.946861  Biso 1.000000     H
    H   1.0     0.750614     0.349515     0.946860  Biso 1.000000     H
    H   1.0     0.310706     0.481029     0.939881  Biso 1.000000     H
    H   1.0     0.810710     0.481029     0.939881  Biso 1.000000     H
    H   1.0     0.053112     0.124267     0.468504  Biso 1.000000     H
    H   1.0     0.553118     0.124263     0.468503  Biso 1.000000     H
    H   1.0     0.017505     0.231572     0.423993  Biso 1.000000     H
    H   1.0     0.517511     0.231567     0.423991  Biso 1.000000     H
    H   1.0     0.212647     0.326586     0.466220  Biso 1.000000     H
    H   1.0     0.712652     0.326585     0.466224  Biso 1.000000     H
    H   1.0     0.238965     0.217598     0.510025  Biso 1.000000     H
    H   1.0     0.738970     0.217598     0.510031  Biso 1.000000     H
    H   1.0     0.126987     0.355050     0.369600  Biso 1.000000     H
    H   1.0     0.626993     0.355045     0.369600  Biso 1.000000     H
    H   1.0     0.045198     0.346813     0.392481  Biso 1.000000     H
    H   1.0     0.545204     0.346808     0.392479  Biso 1.000000     H
    H   1.0     0.042505     0.405439     0.568924  Biso 1.000000     H
    H   1.0     0.542509     0.405437     0.568922  Biso 1.000000     H
    H   1.0     0.117228     0.516125     0.671924  Biso 1.000000     H
    H   1.0     0.617231     0.516123     0.671923  Biso 1.000000     H
    H   1.0     0.037551     0.551360     0.702767  Biso 1.000000     H
    H   1.0     0.537554     0.551359     0.702764  Biso 1.000000     H
    H   1.0     0.084243     0.596808     0.650343  Biso 1.000000     H
    H   1.0     0.584248     0.596806     0.650341  Biso 1.000000     H
    H   1.0     0.144105     0.458494     0.518534  Biso 1.000000     H
    H   1.0     0.644109     0.458492     0.518533  Biso 1.000000     H
    H   1.0     0.386353     0.344404     0.875289  Biso 1.000000     H
    H   1.0     0.886359     0.344405     0.875299  Biso 1.000000     H
    H   1.0     0.350800     0.192677     0.767989  Biso 1.000000     H
    H   1.0     0.850806     0.192677     0.768001  Biso 1.000000     H
    H   1.0     0.046024     0.140067     0.673330  Biso 1.000000     H
    H   1.0     0.546030     0.140061     0.673333  Biso 1.000000     H
    H   1.0     0.072286     0.292771     0.782307  Biso 1.000000     H
    H   1.0     0.572292     0.292765     0.782310  Biso 1.000000     H
    H   1.0     0.460426     0.015022     0.645008  Biso 1.000000     H
    H   1.0     0.960430     0.015026     0.645016  Biso 1.000000     H
    H   1.0     0.378612     0.045983     0.653161  Biso 1.000000     H
    H   1.0     0.878616     0.045986     0.653167  Biso 1.000000     H
    H   1.0     0.375845     0.163498     0.593956  Biso 1.000000     H
    H   1.0     0.875851     0.163497     0.593957  Biso 1.000000     H
    H   1.0     0.450535     0.155371     0.482930  Biso 1.000000     H
    H   1.0     0.950540     0.155362     0.482925  Biso 1.000000     H
    H   1.0     0.370813     0.151033     0.447836  Biso 1.000000     H
    H   1.0     0.870817     0.151023     0.447832  Biso 1.000000     H
    H   1.0     0.417399     0.053137     0.402602  Biso 1.000000     H
    H   1.0     0.917403     0.053126     0.402602  Biso 1.000000     H
    H   1.0     0.477451     0.060157     0.541205  Biso 1.000000     H
    H   1.0     0.977456     0.060155     0.541209  Biso 1.000000     H
    C   1.0     0.002837     0.468327     0.296714  Biso 1.000000     C
    C   1.0     0.502843     0.468314     0.296708  Biso 1.000000     C
    C   1.0     0.483875     0.443228     0.212180  Biso 1.000000     C
    C   1.0     0.983878     0.443242     0.212186  Biso 1.000000     C
    C   1.0     0.028729     0.442796     0.153339  Biso 1.000000     C
    C   1.0     0.528735     0.442786     0.153333  Biso 1.000000     C
    C   1.0     0.091634     0.467128     0.182684  Biso 1.000000     C
    C   1.0     0.591639     0.467120     0.182680  Biso 1.000000     C
    C   1.0     0.107138     0.491923     0.268089  Biso 1.000000     C
    C   1.0     0.607143     0.491915     0.268085  Biso 1.000000     C
    C   1.0     0.010689     0.419580     0.061765  Biso 1.000000     C
    C   1.0     0.510694     0.419571     0.061760  Biso 1.000000     C
    C   1.0     0.466953     0.564683     0.099776  Biso 1.000000     C
    C   1.0     0.966957     0.564691     0.099777  Biso 1.000000     C
    C   1.0     0.401921     0.542140     0.052983  Biso 1.000000     C
    C   1.0     0.901925     0.542144     0.052984  Biso 1.000000     C
    C   1.0     0.490321     0.653031     0.115239  Biso 1.000000     C
    C   1.0     0.990323     0.653037     0.115233  Biso 1.000000     C
    C   1.0     0.336149     0.828642     0.532212  Biso 1.000000     C
    C   1.0     0.836154     0.828647     0.532229  Biso 1.000000     C
    C   1.0     0.317183     0.769136     0.557268  Biso 1.000000     C
    C   1.0     0.817187     0.769141     0.557284  Biso 1.000000     C
    C   1.0     0.362036     0.710708     0.557661  Biso 1.000000     C
    C   1.0     0.862040     0.710710     0.557674  Biso 1.000000     C
    C   1.0     0.424939     0.715784     0.533343  Biso 1.000000     C
    C   1.0     0.924944     0.715787     0.533357  Biso 1.000000     C
    C   1.0     0.440437     0.776453     0.508576  Biso 1.000000     C
    C   1.0     0.940442     0.776458     0.508592  Biso 1.000000     C
    C   1.0     0.343997     0.642215     0.580748  Biso 1.000000     C
    C   1.0     0.844000     0.642215     0.580756  Biso 1.000000     C
    C   1.0     0.300413     0.535409     0.435513  Biso 1.000000     C
    C   1.0     0.800418     0.535413     0.435519  Biso 1.000000     C
    C   1.0     0.235332     0.511119     0.457941  Biso 1.000000     C
    C   1.0     0.735336     0.511118     0.457942  Biso 1.000000     C
    C   1.0     0.323822     0.462681     0.347173  Biso 1.000000     C
    C   1.0     0.823828     0.462690     0.347178  Biso 1.000000     C
    C   1.0     0.169452     0.703440     0.171543  Biso 1.000000     C
    C   1.0     0.669457     0.703441     0.171541  Biso 1.000000     C
    C   1.0     0.150492     0.787921     0.231056  Biso 1.000000     C
    C   1.0     0.650497     0.787923     0.231054  Biso 1.000000     C
    C   1.0     0.195359     0.846693     0.289452  Biso 1.000000     C
    C   1.0     0.695364     0.846693     0.289452  Biso 1.000000     C
    C   1.0     0.258264     0.817323     0.284377  Biso 1.000000     C
    C   1.0     0.758268     0.817321     0.284379  Biso 1.000000     C
    C   1.0     0.273756     0.731965     0.223695  Biso 1.000000     C
    C   1.0     0.773760     0.731963     0.223697  Biso 1.000000     C
    C   1.0     0.177332     0.938239     0.357806  Biso 1.000000     C
    C   1.0     0.677338     0.938239     0.357807  Biso 1.000000     C
    C   1.0     0.133717     0.900168     0.464967  Biso 1.000000     C
    C   1.0     0.633721     0.900166     0.464965  Biso 1.000000     C
    C   1.0     0.068644     0.946875     0.489046  Biso 1.000000     C
    C   1.0     0.568648     0.946873     0.489043  Biso 1.000000     C
    C   1.0     0.157064     0.884847     0.537963  Biso 1.000000     C
    C   1.0     0.657066     0.884842     0.537960  Biso 1.000000     C
    C   1.0     0.252851     0.531640     0.703285  Biso 1.000000     C
    C   1.0     0.752855     0.531634     0.703284  Biso 1.000000     C
    C   1.0     0.233901     0.556741     0.787826  Biso 1.000000     C
    C   1.0     0.733905     0.556736     0.787824  Biso 1.000000     C
    C   1.0     0.278771     0.557197     0.846658  Biso 1.000000     C
    C   1.0     0.778775     0.557195     0.846658  Biso 1.000000     C
    C   1.0     0.341669     0.532856     0.817286  Biso 1.000000     C
    C   1.0     0.841673     0.532855     0.817286  Biso 1.000000     C
    C   1.0     0.357154     0.508044     0.731869  Biso 1.000000     C
    C   1.0     0.857158     0.508041     0.731870  Biso 1.000000     C
    C   1.0     0.260751     0.580428     0.938244  Biso 1.000000     C
    C   1.0     0.760755     0.580427     0.938244  Biso 1.000000     C
    C   1.0     0.216950     0.435334     0.900241  Biso 1.000000     C
    C   1.0     0.716954     0.435333     0.900240  Biso 1.000000     C
    C   1.0     0.151914     0.457919     0.947026  Biso 1.000000     C
    C   1.0     0.651918     0.457917     0.947025  Biso 1.000000     C
    C   1.0     0.240249     0.346982     0.884824  Biso 1.000000     C
    C   1.0     0.740254     0.346981     0.884823  Biso 1.000000     C
    C   1.0     0.086159     0.171236     0.467605  Biso 1.000000     C
    C   1.0     0.586165     0.171233     0.467606  Biso 1.000000     C
    C   1.0     0.067175     0.230747     0.442575  Biso 1.000000     C
    C   1.0     0.567181     0.230743     0.442575  Biso 1.000000     C
    C   1.0     0.112005     0.289241     0.442236  Biso 1.000000     C
    C   1.0     0.612011     0.289238     0.442237  Biso 1.000000     C
    C   1.0     0.174910     0.284211     0.466564  Biso 1.000000     C
    C   1.0     0.674916     0.284209     0.466567  Biso 1.000000     C
    C   1.0     0.190429     0.223532     0.491303  Biso 1.000000     C
    C   1.0     0.690434     0.223531     0.491307  Biso 1.000000     C
    C   1.0     0.093939     0.357747     0.419188  Biso 1.000000     C
    C   1.0     0.593944     0.357743     0.419188  Biso 1.000000     C
    C   1.0     0.050403     0.464553     0.564446  Biso 1.000000     C
    C   1.0     0.550407     0.464551     0.564444  Biso 1.000000     C
    C   1.0     0.485334     0.488876     0.542050  Biso 1.000000     C
    C   1.0     0.985339     0.488878     0.542053  Biso 1.000000     C
    C   1.0     0.073851     0.537253     0.652779  Biso 1.000000     C
    C   1.0     0.573855     0.537251     0.652777  Biso 1.000000     C
    C   1.0     0.419434     0.296602     0.828396  Biso 1.000000     C
    C   1.0     0.919439     0.296603     0.828404  Biso 1.000000     C
    C   1.0     0.400475     0.212114     0.768881  Biso 1.000000     C
    C   1.0     0.900480     0.212116     0.768889  Biso 1.000000     C
    C   1.0     0.445351     0.153344     0.710512  Biso 1.000000     C
    C   1.0     0.945355     0.153347     0.710516  Biso 1.000000     C
    C   1.0     0.008254     0.182734     0.715609  Biso 1.000000     C
    C   1.0     0.508260     0.182729     0.715609  Biso 1.000000     C
    C   1.0     0.023745     0.268097     0.776292  Biso 1.000000     C
    C   1.0     0.523750     0.268092     0.776293  Biso 1.000000     C
    C   1.0     0.427331     0.061786     0.642162  Biso 1.000000     C
    C   1.0     0.927336     0.061788     0.642168  Biso 1.000000     C
    C   1.0     0.383730     0.099849     0.535000  Biso 1.000000     C
    C   1.0     0.883735     0.099846     0.535002  Biso 1.000000     C
    C   1.0     0.318654     0.053131     0.510900  Biso 1.000000     C
    C   1.0     0.818658     0.053129     0.510905  Biso 1.000000     C
    C   1.0     0.407108     0.115205     0.462034  Biso 1.000000     C
    C   1.0     0.907112     0.115197     0.462032  Biso 1.000000     C
    N   1.0     0.014059     0.495608     0.047937  Biso 1.000000     N
    N   1.0     0.514063     0.495601     0.047935  Biso 1.000000     N
    N   1.0     0.063372     0.493071     0.325040  Biso 1.000000     N
    N   1.0     0.563378     0.493061     0.325034  Biso 1.000000     N
    N   1.0     0.347462     0.552502     0.504650  Biso 1.000000     N
    N   1.0     0.847466     0.552504     0.504656  Biso 1.000000     N
    N   1.0     0.396674     0.832252     0.507428  Biso 1.000000     N
    N   1.0     0.896679     0.832257     0.507445  Biso 1.000000     N
    N   1.0     0.180800     0.952027     0.447619  Biso 1.000000     N
    N   1.0     0.680804     0.952024     0.447619  Biso 1.000000     N
    N   1.0     0.229990     0.675086     0.167885  Biso 1.000000     N
    N   1.0     0.729994     0.675086     0.167885  Biso 1.000000     N
    N   1.0     0.264081     0.504398     0.952072  Biso 1.000000     N
    N   1.0     0.764086     0.504397     0.952072  Biso 1.000000     N
    N   1.0     0.313381     0.506894     0.674936  Biso 1.000000     N
    N   1.0     0.813385     0.506890     0.674935  Biso 1.000000     N
    N   1.0     0.097442     0.447453     0.495289  Biso 1.000000     N
    N   1.0     0.597447     0.447450     0.495288  Biso 1.000000     N
    N   1.0     0.146682     0.167686     0.492419  Biso 1.000000     N
    N   1.0     0.646687     0.167684     0.492421  Biso 1.000000     N
    N   1.0     0.430801     0.047991     0.552347  Biso 1.000000     N
    N   1.0     0.930806     0.047991     0.552352  Biso 1.000000     N
    N   1.0     0.479979     0.324965     0.832085  Biso 1.000000     N
    N   1.0     0.979983     0.324968     0.832088  Biso 1.000000     N
    O   1.0     0.354768     0.584767     0.099886  Biso 1.000000     O
    O   1.0     0.854771     0.584769     0.099887  Biso 1.000000     O
    O   1.0     0.399956     0.485224     0.972278  Biso 1.000000     O
    O   1.0     0.899960     0.485227     0.972279  Biso 1.000000     O
    O   1.0     0.188196     0.515752     0.415475  Biso 1.000000     O
    O   1.0     0.688201     0.515749     0.415474  Biso 1.000000     O
    O   1.0     0.233313     0.486969     0.514629  Biso 1.000000     O
    O   1.0     0.733318     0.486966     0.514629  Biso 1.000000     O
    O   1.0     0.021480     0.899883     0.484595  Biso 1.000000     O
    O   1.0     0.521483     0.899880     0.484586  Biso 1.000000     O
    O   1.0     0.066658     0.027606     0.512855  Biso 1.000000     O
    O   1.0     0.566663     0.027605     0.512855  Biso 1.000000     O
    O   1.0     0.104753     0.415314     0.900116  Biso 1.000000     O
    O   1.0     0.604758     0.415311     0.900115  Biso 1.000000     O
    O   1.0     0.149945     0.514839     0.027729  Biso 1.000000     O
    O   1.0     0.649949     0.514836     0.027729  Biso 1.000000     O
    O   1.0     0.438194     0.484243     0.584519  Biso 1.000000     O
    O   1.0     0.938198     0.484241     0.584520  Biso 1.000000     O
    O   1.0     0.483324     0.513041     0.485375  Biso 1.000000     O
    O   1.0     0.983328     0.513047     0.485381  Biso 1.000000     O
    O   1.0     0.271500     0.100113     0.515326  Biso 1.000000     O
    O   1.0     0.771505     0.100111     0.515330  Biso 1.000000     O
    O   1.0     0.316659     0.972400     0.487094  Biso 1.000000     O
    O   1.0     0.816663     0.972399     0.487101  Biso 1.000000     O
   Cl   1.0     0.509338     0.544392     0.862836  Biso 1.000000    Cl
   Cl   1.0     0.000000     0.544393     0.862834  Biso 1.000000    Cl
   Cl   1.0     0.342547     0.318430     0.455296  Biso 1.000000    Cl
   Cl   1.0     0.842552     0.318428     0.455293  Biso 1.000000    Cl
   Cl   1.0     0.175899     0.137022     0.681333  Biso 1.000000    Cl
   Cl   1.0     0.675904     0.137016     0.681335  Biso 1.000000    Cl
   Cl   1.0     0.259315     0.455683     0.137198  Biso 1.000000    Cl
   Cl   1.0     0.759321     0.455683     0.137198  Biso 1.000000    Cl
   Cl   1.0     0.092561     0.681564     0.544640  Biso 1.000000    Cl
   Cl   1.0     0.592564     0.681559     0.544633  Biso 1.000000    Cl
   Cl   1.0     0.425912     0.863090     0.318610  Biso 1.000000    Cl
   Cl   1.0     0.925915     0.863079     0.318618  Biso 1.000000    Cl
   Zn   1.0     0.005710     0.453424     0.914956  Biso 1.000000    Zn
   Zn   1.0     0.505714     0.453421     0.914954  Biso 1.000000    Zn
   Zn   1.0     0.339071     0.461376     0.546470  Biso 1.000000    Zn
   Zn   1.0     0.839075     0.461373     0.546470  Biso 1.000000    Zn
   Zn   1.0     0.172397     0.084988     0.538314  Biso 1.000000    Zn
   Zn   1.0     0.672401     0.084985     0.538316  Biso 1.000000    Zn
   Zn   1.0     0.255713     0.546635     0.085058  Biso 1.000000    Zn
   Zn   1.0     0.755717     0.546634     0.085058  Biso 1.000000    Zn
   Zn   1.0     0.089071     0.538609     0.453505  Biso 1.000000    Zn
   Zn   1.0     0.589075     0.538604     0.453501  Biso 1.000000    Zn
   Zn   1.0     0.422394     0.915032     0.461616  Biso 1.000000    Zn
   Zn   1.0     0.922399     0.915030     0.461625  Biso 1.000000    Zn
