#======================================================================

# CRYSTAL DATA

#----------------------------------------------------------------------

data_VESTA_phase_1


_pd_phase_name                         MOF
_cell_length_a                         20.85300
_cell_length_b                         17.75300
_cell_length_c                         17.75900
_cell_angle_alpha                      119.94100
_cell_angle_beta                       90.01100
_cell_angle_gamma                      90.01300
_symmetry_space_group_name_H-M         "P 1"
_symmetry_Int_Tables_number            1

loop_
_symmetry_equiv_pos_as_xyz
   "x, y, z"

loop_
   _atom_site_label
   _atom_site_occupancy
   _atom_site_fract_x
   _atom_site_fract_y
   _atom_site_fract_z
   _atom_site_adp_type
   _atom_site_B_iso_or_equiv
   _atom_site_type_symbol
    H   1.0     0.491205     0.656706     0.534586  Biso 1.000000     H
    H   1.0     0.991198     0.656705     0.534580  Biso 1.000000     H
    H   1.0     0.526814     0.808225     0.578901  Biso 1.000000     H
    H   1.0     0.000000     0.808223     0.578893  Biso 1.000000     H
    H   1.0     0.332002     0.859329     0.532200  Biso 1.000000     H
    H   1.0     0.831993     0.859323     0.532186  Biso 1.000000     H
    H   1.0     0.305700     0.706857     0.488741  Biso 1.000000     H
    H   1.0     0.805693     0.706851     0.488729  Biso 1.000000     H
    H   1.0     0.417499     0.984835     0.630805  Biso 1.000000     H
    H   1.0     0.917487     0.984831     0.630794  Biso 1.000000     H
    H   1.0     0.499456     0.953825     0.607912  Biso 1.000000     H
    H   1.0     0.999447     0.953823     0.607909  Biso 1.000000     H
    H   1.0     0.502542     0.836863     0.432503  Biso 1.000000     H
    H   1.0     0.000000     0.836860     0.432490  Biso 1.000000     H
    H   1.0     0.426731     0.842144     0.329499  Biso 1.000000     H
    H   1.0     0.926732     0.842159     0.329489  Biso 1.000000     H
    H   1.0     0.006159     0.847696     0.297923  Biso 1.000000     H
    H   1.0     0.506162     0.847681     0.297927  Biso 1.000000     H
    H   1.0     0.458508     0.944472     0.349791  Biso 1.000000     H
    H   1.0     0.958510     0.944487     0.349792  Biso 1.000000     H
    H   1.0     0.400214     0.939683     0.482202  Biso 1.000000     H
    H   1.0     0.900210     0.939688     0.482193  Biso 1.000000     H
    H   1.0     0.324462     0.877825     0.343275  Biso 1.000000     H
    H   1.0     0.824456     0.877818     0.343275  Biso 1.000000     H
    H   1.0     0.360122     0.770785     0.191920  Biso 1.000000     H
    H   1.0     0.860117     0.770777     0.191920  Biso 1.000000     H
    H   1.0     0.165320     0.672896     0.140637  Biso 1.000000     H
    H   1.0     0.665308     0.672906     0.140631  Biso 1.000000     H
    H   1.0     0.138976     0.781749     0.292969  Biso 1.000000     H
    H   1.0     0.638966     0.781760     0.292965  Biso 1.000000     H
    H   1.0     0.250949     0.646266     0.015270  Biso 1.000000     H
    H   1.0     0.750940     0.646264     0.015267  Biso 1.000000     H
    H   1.0     0.332851     0.654337     0.046449  Biso 1.000000     H
    H   1.0     0.832842     0.654340     0.046447  Biso 1.000000     H
    H   1.0     0.335931     0.595470     0.163274  Biso 1.000000     H
    H   1.0     0.835923     0.595471     0.163274  Biso 1.000000     H
    H   1.0     0.260136     0.486971     0.157711  Biso 1.000000     H
    H   1.0     0.760129     0.486972     0.157707  Biso 1.000000     H
    H   1.0     0.339540     0.449845     0.152075  Biso 1.000000     H
    H   1.0     0.839532     0.449844     0.152071  Biso 1.000000     H
    H   1.0     0.291841     0.405309     0.055344  Biso 1.000000     H
    H   1.0     0.791834     0.405310     0.055341  Biso 1.000000     H
    H   1.0     0.233536     0.542700     0.060462  Biso 1.000000     H
    H   1.0     0.733530     0.542699     0.060457  Biso 1.000000     H
    H   1.0     0.157811     0.465702     0.122410  Biso 1.000000     H
    H   1.0     0.657809     0.465713     0.122418  Biso 1.000000     H
    H   1.0     0.193405     0.421422     0.229680  Biso 1.000000     H
    H   1.0     0.693402     0.421436     0.229691  Biso 1.000000     H
    H   1.0    -0.001434     0.467864     0.327195  Biso 1.000000     H
    H   1.0     0.498561     0.467872     0.327197  Biso 1.000000     H
    H   1.0     0.472282     0.511329     0.218142  Biso 1.000000     H
    H   1.0     0.972289     0.511320     0.218139  Biso 1.000000     H
    H   1.0     0.083988     0.369269     0.354223  Biso 1.000000     H
    H   1.0     0.583983     0.369279     0.354228  Biso 1.000000     H
    H   1.0     0.165976     0.392070     0.346024  Biso 1.000000     H
    H   1.0     0.665970     0.392079     0.346029  Biso 1.000000     H
    H   1.0     0.169276     0.567649     0.404436  Biso 1.000000     H
    H   1.0     0.669268     0.567664     0.404448  Biso 1.000000     H
    H   1.0     0.093645     0.670721     0.512725  Biso 1.000000     H
    H   1.0     0.593640     0.670731     0.512745  Biso 1.000000     H
    H   1.0     0.173099     0.702060     0.549821  Biso 1.000000     H
    H   1.0     0.673094     0.702068     0.549840  Biso 1.000000     H
    H   1.0     0.125306     0.650038     0.594554  Biso 1.000000     H
    H   1.0     0.625302     0.650040     0.594566  Biso 1.000000     H
    H   1.0     0.066884     0.517884     0.457528  Biso 1.000000     H
    H   1.0     0.566878     0.517891     0.457537  Biso 1.000000     H
    H   1.0     0.241130     0.343259     0.465447  Biso 1.000000     H
    H   1.0     0.741122     0.343257     0.465432  Biso 1.000000     H
    H   1.0     0.276718     0.191741     0.421059  Biso 1.000000     H
    H   1.0     0.776708     0.191737     0.421038  Biso 1.000000     H
    H   1.0     0.081944     0.140513     0.467787  Biso 1.000000     H
    H   1.0     0.581935     0.140510     0.467769  Biso 1.000000     H
    H   1.0     0.055660     0.292991     0.511310  Biso 1.000000     H
    H   1.0     0.555652     0.292990     0.511299  Biso 1.000000     H
    H   1.0     0.167361     0.015083     0.369180  Biso 1.000000     H
    H   1.0     0.667351     0.015079     0.369167  Biso 1.000000     H
    H   1.0     0.249345     0.046112     0.391978  Biso 1.000000     H
    H   1.0     0.749334     0.046108     0.391956  Biso 1.000000     H
    H   1.0     0.252589     0.163054     0.567447  Biso 1.000000     H
    H   1.0     0.752589     0.163058     0.567420  Biso 1.000000     H
    H   1.0     0.176958     0.157636     0.670546  Biso 1.000000     H
    H   1.0     0.676951     0.157669     0.670526  Biso 1.000000     H
    H   1.0     0.256441     0.152061     0.701921  Biso 1.000000     H
    H   1.0     0.756430     0.152091     0.701910  Biso 1.000000     H
    H   1.0     0.208738     0.055278     0.650063  Biso 1.000000     H
    H   1.0     0.708723     0.055312     0.650063  Biso 1.000000     H
    H   1.0     0.150227     0.060188     0.517771  Biso 1.000000     H
    H   1.0     0.650224     0.060192     0.517759  Biso 1.000000     H
    H   1.0     0.074564     0.122386     0.656697  Biso 1.000000     H
    H   1.0     0.574565     0.122377     0.656701  Biso 1.000000     H
    H   1.0     0.110155     0.229441     0.808129  Biso 1.000000     H
    H   1.0     0.610156     0.229429     0.808132  Biso 1.000000     H
    H   1.0     0.415292     0.326897     0.859162  Biso 1.000000     H
    H   1.0     0.915291     0.326901     0.859159  Biso 1.000000     H
    H   1.0     0.389026     0.218064     0.706766  Biso 1.000000     H
    H   1.0     0.889026     0.218065     0.706763  Biso 1.000000     H
    H   1.0     0.500832     0.353653     0.984649  Biso 1.000000     H
    H   1.0     0.000000     0.353659     0.984645  Biso 1.000000     H
    H   1.0     0.082758     0.345701     0.953658  Biso 1.000000     H
    H   1.0     0.582761     0.345695     0.953662  Biso 1.000000     H
    H   1.0     0.085837     0.404610     0.836797  Biso 1.000000     H
    H   1.0     0.585838     0.404596     0.836794  Biso 1.000000     H
    H   1.0     0.010049     0.513130     0.842465  Biso 1.000000     H
    H   1.0     0.510043     0.513099     0.842446  Biso 1.000000     H
    H   1.0     0.089481     0.550229     0.848025  Biso 1.000000     H
    H   1.0     0.589470     0.550210     0.848009  Biso 1.000000     H
    H   1.0     0.041879     0.594778     0.944818  Biso 1.000000     H
    H   1.0     0.541864     0.594760     0.944797  Biso 1.000000     H
    H   1.0     0.483505     0.457284     0.939584  Biso 1.000000     H
    H   1.0     0.983510     0.457296     0.939585  Biso 1.000000     H
    H   1.0     0.407789     0.534490     0.877867  Biso 1.000000     H
    H   1.0     0.907782     0.534493     0.877867  Biso 1.000000     H
    H   1.0     0.443461     0.578673     0.770561  Biso 1.000000     H
    H   1.0     0.943456     0.578676     0.770561  Biso 1.000000     H
    H   1.0     0.248649     0.532089     0.672783  Biso 1.000000     H
    H   1.0     0.748643     0.532090     0.672779  Biso 1.000000     H
    H   1.0     0.222282     0.488733     0.781884  Biso 1.000000     H
    H   1.0     0.722275     0.488741     0.781886  Biso 1.000000     H
    H   1.0     0.334220     0.630733     0.645844  Biso 1.000000     H
    H   1.0     0.834215     0.630730     0.645837  Biso 1.000000     H
    H   1.0     0.416158     0.607761     0.654032  Biso 1.000000     H
    H   1.0     0.916156     0.607762     0.654030  Biso 1.000000     H
    H   1.0     0.419304     0.432289     0.595657  Biso 1.000000     H
    H   1.0     0.919301     0.432289     0.595654  Biso 1.000000     H
    H   1.0     0.343523     0.329246     0.487517  Biso 1.000000     H
    H   1.0     0.843516     0.329250     0.487523  Biso 1.000000     H
    H   1.0     0.422919     0.297811     0.450289  Biso 1.000000     H
    H   1.0     0.922910     0.297805     0.450287  Biso 1.000000     H
    H   1.0     0.375096     0.349838     0.405594  Biso 1.000000     H
    H   1.0     0.875088     0.349837     0.405597  Biso 1.000000     H
    H   1.0     0.316898     0.482064     0.542587  Biso 1.000000     H
    H   1.0     0.816895     0.482060     0.542581  Biso 1.000000     H
    C   1.0     0.458231     0.704149     0.534524  Biso 1.000000     C
    C   1.0     0.958224     0.704147     0.534515  Biso 1.000000     C
    C   1.0     0.477213     0.788520     0.559424  Biso 1.000000     C
    C   1.0     0.977205     0.788519     0.559417  Biso 1.000000     C
    C   1.0     0.432495     0.846745     0.558370  Biso 1.000000     C
    C   1.0     0.932487     0.846740     0.558354  Biso 1.000000     C
    C   1.0     0.369672     0.817033     0.532888  Biso 1.000000     C
    C   1.0     0.869663     0.817027     0.532876  Biso 1.000000     C
    C   1.0     0.354169     0.731816     0.508330  Biso 1.000000     C
    C   1.0     0.854162     0.731809     0.508318  Biso 1.000000     C
    C   1.0     0.450594     0.938098     0.581312  Biso 1.000000     C
    C   1.0     0.950585     0.938096     0.581306  Biso 1.000000     C
    C   1.0     0.494025     0.899910     0.436253  Biso 1.000000     C
    C   1.0     0.994021     0.899913     0.436250  Biso 1.000000     C
    C   1.0     0.059033     0.947035     0.457713  Biso 1.000000     C
    C   1.0     0.559037     0.947038     0.457712  Biso 1.000000     C
    C   1.0     0.469807     0.883072     0.347924  Biso 1.000000     C
    C   1.0     0.969809     0.883085     0.347922  Biso 1.000000     C
    C   1.0     0.291505     0.830338     0.295833  Biso 1.000000     C
    C   1.0     0.791498     0.830335     0.295831  Biso 1.000000     C
    C   1.0     0.310523     0.770922     0.211565  Biso 1.000000     C
    C   1.0     0.810517     0.770918     0.211564  Biso 1.000000     C
    C   1.0     0.265815     0.711706     0.153312  Biso 1.000000     C
    C   1.0     0.765806     0.711707     0.153311  Biso 1.000000     C
    C   1.0     0.202992     0.715823     0.182958  Biso 1.000000     C
    C   1.0     0.702982     0.715828     0.182954  Biso 1.000000     C
    C   1.0     0.187454     0.776438     0.268082  Biso 1.000000     C
    C   1.0     0.687445     0.776446     0.268078  Biso 1.000000     C
    C   1.0     0.283977     0.643377     0.062064  Biso 1.000000     C
    C   1.0     0.783968     0.643379     0.062063  Biso 1.000000     C
    C   1.0     0.327390     0.536376     0.100178  Biso 1.000000     C
    C   1.0     0.827384     0.536378     0.100176  Biso 1.000000     C
    C   1.0     0.392370     0.510760     0.053029  Biso 1.000000     C
    C   1.0     0.892367     0.510765     0.053031  Biso 1.000000     C
    C   1.0     0.303183     0.464666     0.116777  Biso 1.000000     C
    C   1.0     0.803177     0.464667     0.116774  Biso 1.000000     C
    C   1.0     0.124835     0.465720     0.169876  Biso 1.000000     C
    C   1.0     0.624833     0.465733     0.169885  Biso 1.000000     C
    C   1.0     0.143801     0.440832     0.229376  Biso 1.000000     C
    C   1.0     0.643798     0.440844     0.229384  Biso 1.000000     C
    C   1.0     0.099065     0.441803     0.288576  Biso 1.000000     C
    C   1.0     0.599061     0.441815     0.288582  Biso 1.000000     C
    C   1.0     0.036244     0.467229     0.284261  Biso 1.000000     C
    C   1.0     0.536240     0.467239     0.284266  Biso 1.000000     C
    C   1.0     0.020754     0.491787     0.223581  Biso 1.000000     C
    C   1.0     0.520751     0.491797     0.223586  Biso 1.000000     C
    C   1.0     0.117149     0.418751     0.356924  Biso 1.000000     C
    C   1.0     0.617144     0.418761     0.356929  Biso 1.000000     C
    C   1.0     0.160751     0.563754     0.463640  Biso 1.000000     C
    C   1.0     0.660746     0.563763     0.463648  Biso 1.000000     C
    C   1.0     0.225737     0.542185     0.489269  Biso 1.000000     C
    C   1.0     0.725733     0.542192     0.489274  Biso 1.000000     C
    C   1.0     0.136661     0.652077     0.535141  Biso 1.000000     C
    C   1.0     0.636657     0.652083     0.535156  Biso 1.000000     C
    C   1.0     0.208165     0.295786     0.465500  Biso 1.000000     C
    C   1.0     0.708156     0.295783     0.465483  Biso 1.000000     C
    C   1.0     0.227130     0.211417     0.440561  Biso 1.000000     C
    C   1.0     0.727121     0.211414     0.440542  Biso 1.000000     C
    C   1.0     0.182412     0.153169     0.441613  Biso 1.000000     C
    C   1.0     0.682403     0.153166     0.441595  Biso 1.000000     C
    C   1.0     0.119605     0.182848     0.467118  Biso 1.000000     C
    C   1.0     0.619597     0.182845     0.467101  Biso 1.000000     C
    C   1.0     0.104119     0.268066     0.491713  Biso 1.000000     C
    C   1.0     0.604111     0.268063     0.491697  Biso 1.000000     C
    C   1.0     0.200514     0.061823     0.418631  Biso 1.000000     C
    C   1.0     0.700504     0.061821     0.418615  Biso 1.000000     C
    C   1.0     0.244088     0.099967     0.563627  Biso 1.000000     C
    C   1.0     0.744085     0.099977     0.563612  Biso 1.000000     C
    C   1.0     0.309087     0.052874     0.542109  Biso 1.000000     C
    C   1.0     0.809082     0.052880     0.542105  Biso 1.000000     C
    C   1.0     0.220017     0.116709     0.651971  Biso 1.000000     C
    C   1.0     0.720007     0.116737     0.651960  Biso 1.000000     C
    C   1.0     0.041572     0.169785     0.704097  Biso 1.000000     C
    C   1.0     0.541575     0.169779     0.704100  Biso 1.000000     C
    C   1.0     0.060554     0.229198     0.788412  Biso 1.000000     C
    C   1.0     0.560556     0.229188     0.788417  Biso 1.000000     C
    C   1.0     0.015814     0.288306     0.846627  Biso 1.000000     C
    C   1.0     0.515817     0.288299     0.846631  Biso 1.000000     C
    C   1.0     0.452996     0.284064     0.816896  Biso 1.000000     C
    C   1.0     0.952997     0.284070     0.816893  Biso 1.000000     C
    C   1.0     0.437497     0.223466     0.731730  Biso 1.000000     C
    C   1.0     0.937497     0.223470     0.731728  Biso 1.000000     C
    C   1.0     0.033900     0.356617     0.937946  Biso 1.000000     C
    C   1.0     0.533904     0.356611     0.937949  Biso 1.000000     C
    C   1.0     0.077347     0.463699     0.899899  Biso 1.000000     C
    C   1.0     0.577345     0.463687     0.899894  Biso 1.000000     C
    C   1.0     0.142348     0.489277     0.947060  Biso 1.000000     C
    C   1.0     0.642345     0.489278     0.947056  Biso 1.000000     C
    C   1.0     0.053141     0.535436     0.883355  Biso 1.000000     C
    C   1.0     0.553132     0.535414     0.883339  Biso 1.000000     C
    C   1.0     0.374836     0.534421     0.830339  Biso 1.000000     C
    C   1.0     0.874830     0.534427     0.830339  Biso 1.000000     C
    C   1.0     0.393848     0.559245     0.770812  Biso 1.000000     C
    C   1.0     0.893841     0.559252     0.770813  Biso 1.000000     C
    C   1.0     0.349144     0.558214     0.711531  Biso 1.000000     C
    C   1.0     0.849138     0.558207     0.711524  Biso 1.000000     C
    C   1.0     0.286307     0.532769     0.715780  Biso 1.000000     C
    C   1.0     0.786299     0.532777     0.715783  Biso 1.000000     C
    C   1.0     0.270765     0.508278     0.776493  Biso 1.000000     C
    C   1.0     0.770759     0.508279     0.776492  Biso 1.000000     C
    C   1.0     0.367286     0.581180     0.643143  Biso 1.000000     C
    C   1.0     0.867284     0.581184     0.643145  Biso 1.000000     C
    C   1.0     0.410733     0.436141     0.536435  Biso 1.000000     C
    C   1.0     0.910728     0.436142     0.536432  Biso 1.000000     C
    C   1.0     0.475714     0.457661     0.510741  Biso 1.000000     C
    C   1.0     0.975713     0.457656     0.510739  Biso 1.000000     C
    C   1.0     0.386521     0.347822     0.465006  Biso 1.000000     C
    C   1.0     0.886516     0.347821     0.465008  Biso 1.000000     C
    N   1.0     0.446985     0.951745     0.505377  Biso 1.000000     N
    N   1.0     0.946980     0.951747     0.505373  Biso 1.000000     N
    N   1.0     0.397821     0.675439     0.508568  Biso 1.000000     N
    N   1.0     0.897815     0.675435     0.508559  Biso 1.000000     N
    N   1.0     0.280305     0.553778     0.048372  Biso 1.000000     N
    N   1.0     0.780300     0.553780     0.048369  Biso 1.000000     N
    N   1.0     0.231091     0.833018     0.324471  Biso 1.000000     N
    N   1.0     0.731083     0.833021     0.324468  Biso 1.000000     N
    N   1.0     0.113625     0.494646     0.446403  Biso 1.000000     N
    N   1.0     0.613620     0.494654     0.446410  Biso 1.000000     N
    N   1.0     0.064419     0.491576     0.167012  Biso 1.000000     N
    N   1.0     0.564417     0.491586     0.167018  Biso 1.000000     N
    N   1.0     0.196974     0.048140     0.494548  Biso 1.000000     N
    N   1.0     0.696971     0.048145     0.494537  Biso 1.000000     N
    N   1.0     0.147773     0.324466     0.491482  Biso 1.000000     N
    N   1.0     0.647765     0.324465     0.491471  Biso 1.000000     N
    N   1.0     0.030281     0.446229     0.951667  Biso 1.000000     N
    N   1.0     0.530281     0.446222     0.951666  Biso 1.000000     N
    N   1.0     0.481158     0.166979     0.675383  Biso 1.000000     N
    N   1.0     0.981159     0.166982     0.675382  Biso 1.000000     N
    N   1.0     0.363659     0.505272     0.553680  Biso 1.000000     N
    N   1.0     0.863655     0.505277     0.553682  Biso 1.000000     N
    N   1.0     0.314406     0.508540     0.833132  Biso 1.000000     N
    N   1.0     0.814400     0.508544     0.833132  Biso 1.000000     N
    O   1.0     0.106135     0.900616     0.414268  Biso 1.000000     O
    O   1.0     0.606138     0.900621     0.414263  Biso 1.000000     O
    O   1.0     0.061087     0.027512     0.514807  Biso 1.000000     O
    O   1.0     0.561089     0.027515     0.514806  Biso 1.000000     O
    O   1.0     0.439524     0.513839     0.099470  Biso 1.000000     O
    O   1.0     0.939521     0.513845     0.099474  Biso 1.000000     O
    O   1.0     0.394351     0.487305     0.972541  Biso 1.000000     O
    O   1.0     0.894350     0.487310     0.972543  Biso 1.000000     O
    O   1.0     0.272894     0.585567     0.486187  Biso 1.000000     O
    O   1.0     0.772890     0.585569     0.486186  Biso 1.000000     O
    O   1.0     0.227723     0.485090     0.512735  Biso 1.000000     O
    O   1.0     0.727720     0.485094     0.512737  Biso 1.000000     O
    O   1.0     0.356225     0.099317     0.585512  Biso 1.000000     O
    O   1.0     0.856221     0.099323     0.585509  Biso 1.000000     O
    O   1.0     0.311084     0.972395     0.485039  Biso 1.000000     O
    O   1.0     0.811081     0.972400     0.485035  Biso 1.000000     O
    O   1.0     0.189491     0.486190     0.900622  Biso 1.000000     O
    O   1.0     0.689488     0.486193     0.900618  Biso 1.000000     O
    O   1.0     0.144363     0.512711     0.027546  Biso 1.000000     O
    O   1.0     0.644362     0.512714     0.027543  Biso 1.000000     O
    O   1.0     0.022845     0.414246     0.513781  Biso 1.000000     O
    O   1.0     0.522849     0.414248     0.513779  Biso 1.000000     O
    O   1.0     0.477715     0.514762     0.487281  Biso 1.000000     O
    O   1.0     0.977714     0.514754     0.487275  Biso 1.000000     O
   Cl   1.0     0.451367     0.136265     0.456269  Biso 1.000000    Cl
   Cl   1.0     0.951368     0.136267     0.456269  Biso 1.000000    Cl
   Cl   1.0     0.284665     0.320255     0.864095  Biso 1.000000    Cl
   Cl   1.0     0.784660     0.320259     0.864094  Biso 1.000000    Cl
   Cl   1.0     0.117980     0.543411     0.679808  Biso 1.000000    Cl
   Cl   1.0     0.617976     0.543406     0.679811  Biso 1.000000    Cl
   Cl   1.0     0.201354     0.863522     0.543459  Biso 1.000000    Cl
   Cl   1.0     0.701346     0.863540     0.543465  Biso 1.000000    Cl
   Cl   1.0     0.034689     0.679751     0.135850  Biso 1.000000    Cl
   Cl   1.0     0.534680     0.679751     0.135835  Biso 1.000000    Cl
   Cl   1.0     0.367957     0.456494     0.320221  Biso 1.000000    Cl
   Cl   1.0     0.867950     0.456488     0.320217  Biso 1.000000    Cl
   Zn   1.0     0.455433     0.084393     0.547223  Biso 1.000000    Zn
   Zn   1.0     0.955434     0.084395     0.547223  Biso 1.000000    Zn
   Zn   1.0     0.288731     0.463030     0.915860  Biso 1.000000    Zn
   Zn   1.0     0.788731     0.463034     0.915859  Biso 1.000000    Zn
   Zn   1.0     0.122083     0.452653     0.537119  Biso 1.000000    Zn
   Zn   1.0     0.622084     0.452657     0.537120  Biso 1.000000    Zn
   Zn   1.0     0.205401     0.915488     0.452586  Biso 1.000000    Zn
   Zn   1.0     0.705402     0.915496     0.452584  Biso 1.000000    Zn
   Zn   1.0     0.038741     0.536993     0.084205  Biso 1.000000    Zn
   Zn   1.0     0.538743     0.536994     0.084202  Biso 1.000000    Zn
   Zn   1.0     0.372097     0.547207     0.462924  Biso 1.000000    Zn
   Zn   1.0     0.872097     0.547202     0.462919  Biso 1.000000    Zn
