#======================================================================

# CRYSTAL DATA

#----------------------------------------------------------------------

data_VESTA_phase_1


_pd_phase_name                         MOF
_cell_length_a                         20.63800
_cell_length_b                         17.96500
_cell_length_c                         17.96400
_cell_angle_alpha                      119.94400
_cell_angle_beta                       90.01800
_cell_angle_gamma                      90.01100
_symmetry_space_group_name_H-M         "P 1"
_symmetry_Int_Tables_number            1

loop_
_symmetry_equiv_pos_as_xyz
   "x, y, z"

loop_
   _atom_site_label
   _atom_site_occupancy
   _atom_site_fract_x
   _atom_site_fract_y
   _atom_site_fract_z
   _atom_site_adp_type
   _atom_site_B_iso_or_equiv
   _atom_site_type_symbol
    H   1.0     0.488772     0.451601     0.515121  Biso 1.000000     H
    H   1.0     0.988781     0.451600     0.515121  Biso 1.000000     H
    H   1.0     0.468994     0.349423     0.368138  Biso 1.000000     H
    H   1.0     0.969002     0.349422     0.368137  Biso 1.000000     H
    H   1.0     0.386506     0.343051     0.393568  Biso 1.000000     H
    H   1.0     0.886515     0.343049     0.393568  Biso 1.000000     H
    H   1.0     0.380986     0.401965     0.562748  Biso 1.000000     H
    H   1.0     0.880994     0.401966     0.562748  Biso 1.000000     H
    H   1.0     0.396143     0.120151     0.463162  Biso 1.000000     H
    H   1.0     0.896152     0.120151     0.463165  Biso 1.000000     H
    H   1.0     0.056379     0.323955     0.466447  Biso 1.000000     H
    H   1.0     0.556388     0.323957     0.466448  Biso 1.000000     H
    H   1.0     0.359561     0.227351     0.421239  Biso 1.000000     H
    H   1.0     0.859571     0.227351     0.421242  Biso 1.000000     H
    H   1.0     0.083589     0.214903     0.507835  Biso 1.000000     H
    H   1.0     0.583598     0.214904     0.507836  Biso 1.000000     H
    H   1.0     0.462408     0.496476     0.665431  Biso 1.000000     H
    H   1.0     0.962418     0.496474     0.665431  Biso 1.000000     H
    H   1.0     0.385012     0.543561     0.699395  Biso 1.000000     H
    H   1.0     0.885022     0.543562     0.699396  Biso 1.000000     H
    H   1.0     0.438769     0.583882     0.649718  Biso 1.000000     H
    H   1.0     0.938779     0.583881     0.649718  Biso 1.000000     H
    H   1.0     0.322003     0.063516     0.548304  Biso 1.000000     H
    H   1.0     0.822012     0.063518     0.548300  Biso 1.000000     H
    H   1.0     0.302021     0.019379     0.651195  Biso 1.000000     H
    H   1.0     0.802031     0.019379     0.651190  Biso 1.000000     H
    H   1.0     0.219589     0.051183     0.657137  Biso 1.000000     H
    H   1.0     0.719599     0.051183     0.657132  Biso 1.000000     H
    H   1.0     0.214411     0.160817     0.597106  Biso 1.000000     H
    H   1.0     0.714420     0.160819     0.597103  Biso 1.000000     H
    H   1.0     0.229520     0.343312     0.879867  Biso 1.000000     H
    H   1.0     0.729529     0.343312     0.879863  Biso 1.000000     H
    H   1.0     0.389498     0.143058     0.675831  Biso 1.000000     H
    H   1.0     0.889508     0.143058     0.675830  Biso 1.000000     H
    H   1.0     0.192837     0.194349     0.772871  Biso 1.000000     H
    H   1.0     0.692846     0.194350     0.772865  Biso 1.000000     H
    H   1.0     0.416809     0.293322     0.784727  Biso 1.000000     H
    H   1.0     0.916819     0.293322     0.784727  Biso 1.000000     H
    H   1.0     0.295683     0.167417     0.501400  Biso 1.000000     H
    H   1.0     0.795691     0.167420     0.501398  Biso 1.000000     H
    H   1.0     0.218083     0.154395     0.454761  Biso 1.000000     H
    H   1.0     0.718092     0.154398     0.454759  Biso 1.000000     H
    H   1.0     0.271496     0.064161     0.414909  Biso 1.000000     H
    H   1.0     0.771505     0.064165     0.414905  Biso 1.000000     H
    H   1.0     0.155415     0.484443     0.936508  Biso 1.000000     H
    H   1.0     0.655424     0.484444     0.936509  Biso 1.000000     H
    H   1.0     0.136145     0.631288     0.980642  Biso 1.000000     H
    H   1.0     0.636152     0.631289     0.980645  Biso 1.000000     H
    H   1.0     0.053573     0.606281     0.949027  Biso 1.000000     H
    H   1.0     0.553581     0.606280     0.949029  Biso 1.000000     H
    H   1.0     0.047575     0.436807     0.839265  Biso 1.000000     H
    H   1.0     0.547584     0.436807     0.839266  Biso 1.000000     H
    H   1.0     0.063084     0.536388     0.656611  Biso 1.000000     H
    H   1.0     0.563092     0.536393     0.656615  Biso 1.000000     H
    H   1.0     0.223262     0.532572     0.856969  Biso 1.000000     H
    H   1.0     0.723271     0.532577     0.856973  Biso 1.000000     H
    H   1.0     0.026610     0.578565     0.805743  Biso 1.000000     H
    H   1.0     0.526618     0.578566     0.805746  Biso 1.000000     H
    H   1.0     0.250398     0.491026     0.706534  Biso 1.000000     H
    H   1.0     0.750407     0.491035     0.706539  Biso 1.000000     H
    H   1.0     0.128743     0.334043     0.831611  Biso 1.000000     H
    H   1.0     0.628752     0.334043     0.831611  Biso 1.000000     H
    H   1.0     0.051264     0.300448     0.845089  Biso 1.000000     H
    H   1.0     0.551274     0.300448     0.845089  Biso 1.000000     H
    H   1.0     0.105134     0.350289     0.934919  Biso 1.000000     H
    H   1.0     0.605144     0.350288     0.934919  Biso 1.000000     H
    H   1.0     0.238801     0.548336     0.484909  Biso 1.000000     H
    H   1.0     0.738810     0.548340     0.484910  Biso 1.000000     H
    H   1.0     0.219298     0.650618     0.631821  Biso 1.000000     H
    H   1.0     0.719310     0.650625     0.631821  Biso 1.000000     H
    H   1.0     0.136753     0.657030     0.606586  Biso 1.000000     H
    H   1.0     0.636764     0.657037     0.606588  Biso 1.000000     H
    H   1.0     0.131005     0.598024     0.437313  Biso 1.000000     H
    H   1.0     0.631014     0.598027     0.437313  Biso 1.000000     H
    H   1.0     0.146186     0.879489     0.536313  Biso 1.000000     H
    H   1.0     0.646197     0.879494     0.536312  Biso 1.000000     H
    H   1.0     0.306525     0.676096     0.533523  Biso 1.000000     H
    H   1.0     0.806534     0.676096     0.533514  Biso 1.000000     H
    H   1.0     0.109691     0.772462     0.578514  Biso 1.000000     H
    H   1.0     0.609703     0.772470     0.578517  Biso 1.000000     H
    H   1.0     0.333653     0.784973     0.491860  Biso 1.000000     H
    H   1.0     0.833662     0.784969     0.491847  Biso 1.000000     H
    H   1.0     0.212289     0.503433     0.334589  Biso 1.000000     H
    H   1.0     0.712298     0.503435     0.334590  Biso 1.000000     H
    H   1.0     0.134835     0.456400     0.300704  Biso 1.000000     H
    H   1.0     0.634844     0.456403     0.300706  Biso 1.000000     H
    H   1.0     0.188608     0.416071     0.350371  Biso 1.000000     H
    H   1.0     0.688617     0.416075     0.350374  Biso 1.000000     H
    H   1.0     0.071991     0.936324     0.451413  Biso 1.000000     H
    H   1.0     0.572000     0.936324     0.451411  Biso 1.000000     H
    H   1.0     0.052003     0.980501     0.348554  Biso 1.000000     H
    H   1.0     0.552011     0.980500     0.348552  Biso 1.000000     H
    H   1.0     0.469582     0.948573     0.342468  Biso 1.000000     H
    H   1.0     0.969593     0.948574     0.342469  Biso 1.000000     H
    H   1.0     0.464390     0.838929     0.402535  Biso 1.000000     H
    H   1.0     0.964401     0.838928     0.402535  Biso 1.000000     H
    H   1.0     0.479570     0.656541     0.119636  Biso 1.000000     H
    H   1.0     0.979580     0.656544     0.119634  Biso 1.000000     H
    H   1.0     0.139480     0.856885     0.324058  Biso 1.000000     H
    H   1.0     0.639489     0.856887     0.324055  Biso 1.000000     H
    H   1.0     0.442891     0.805471     0.226567  Biso 1.000000     H
    H   1.0     0.942902     0.805474     0.226567  Biso 1.000000     H
    H   1.0     0.166799     0.706646     0.215200  Biso 1.000000     H
    H   1.0     0.666809     0.706647     0.215198  Biso 1.000000     H
    H   1.0     0.045637     0.832423     0.498362  Biso 1.000000     H
    H   1.0     0.545648     0.832422     0.498358  Biso 1.000000     H
    H   1.0     0.468073     0.845517     0.545001  Biso 1.000000     H
    H   1.0     0.968081     0.845519     0.545003  Biso 1.000000     H
    H   1.0     0.021539     0.935730     0.584767  Biso 1.000000     H
    H   1.0     0.521550     0.935728     0.584765  Biso 1.000000     H
    H   1.0     0.405416     0.515389     0.063466  Biso 1.000000     H
    H   1.0     0.905426     0.515389     0.063465  Biso 1.000000     H
    H   1.0     0.385978     0.368549     0.019415  Biso 1.000000     H
    H   1.0     0.885987     0.368550     0.019414  Biso 1.000000     H
    H   1.0     0.303438     0.393681     0.050998  Biso 1.000000     H
    H   1.0     0.803448     0.393681     0.050996  Biso 1.000000     H
    H   1.0     0.297621     0.563086     0.160633  Biso 1.000000     H
    H   1.0     0.797631     0.563086     0.160632  Biso 1.000000     H
    H   1.0     0.313023     0.463774     0.343485  Biso 1.000000     H
    H   1.0     0.813032     0.463773     0.343483  Biso 1.000000     H
    H   1.0     0.473201     0.467348     0.143112  Biso 1.000000     H
    H   1.0     0.973211     0.467348     0.143111  Biso 1.000000     H
    H   1.0     0.276502     0.421534     0.194320  Biso 1.000000     H
    H   1.0     0.776511     0.421534     0.194318  Biso 1.000000     H
    H   1.0     0.500374     0.508973     0.293582  Biso 1.000000     H
    H   1.0     0.000000     0.508972     0.293581  Biso 1.000000     H
    H   1.0     0.378906     0.665759     0.168298  Biso 1.000000     H
    H   1.0     0.878916     0.665759     0.168294  Biso 1.000000     H
    H   1.0     0.301455     0.699448     0.154858  Biso 1.000000     H
    H   1.0     0.801465     0.699448     0.154856  Biso 1.000000     H
    H   1.0     0.355248     0.649585     0.065016  Biso 1.000000     H
    H   1.0     0.855257     0.649585     0.065013  Biso 1.000000     H
    C   1.0     0.454890     0.285474     0.440917  Biso 1.000000     C
    C   1.0     0.954899     0.285473     0.440918  Biso 1.000000     C
    C   1.0     0.330749     0.495055     0.544845  Biso 1.000000     C
    C   1.0     0.830759     0.495058     0.544846  Biso 1.000000     C
    C   1.0     0.436356     0.353080     0.418268  Biso 1.000000     C
    C   1.0     0.936365     0.353079     0.418268  Biso 1.000000     C
    C   1.0     0.394072     0.461021     0.561869  Biso 1.000000     C
    C   1.0     0.894080     0.461021     0.561869  Biso 1.000000     C
    C   1.0     0.429368     0.167322     0.463484  Biso 1.000000     C
    C   1.0     0.929378     0.167322     0.463486  Biso 1.000000     C
    C   1.0     0.018523     0.281118     0.465630  Biso 1.000000     C
    C   1.0     0.518532     0.281119     0.465630  Biso 1.000000     C
    C   1.0     0.409822     0.226733     0.439834  Biso 1.000000     C
    C   1.0     0.909832     0.226733     0.439835  Biso 1.000000     C
    C   1.0     0.034504     0.220614     0.489070  Biso 1.000000     C
    C   1.0     0.534513     0.220615     0.489070  Biso 1.000000     C
    C   1.0     0.421952     0.525688     0.649522  Biso 1.000000     C
    C   1.0     0.921962     0.525687     0.649522  Biso 1.000000     C
    C   1.0     0.288053     0.155963     0.714495  Biso 1.000000     C
    C   1.0     0.788063     0.155963     0.714491  Biso 1.000000     C
    C   1.0     0.163909     0.049622     0.504869  Biso 1.000000     C
    C   1.0     0.663919     0.049623     0.504865  Biso 1.000000     C
    C   1.0     0.269479     0.065714     0.647113  Biso 1.000000     C
    C   1.0     0.769488     0.065714     0.647108  Biso 1.000000     C
    C   1.0     0.227317     0.100571     0.538398  Biso 1.000000     C
    C   1.0     0.727326     0.100573     0.538395  Biso 1.000000     C
    C   1.0     0.262681     0.296527     0.832644  Biso 1.000000     C
    C   1.0     0.762690     0.296527     0.832640  Biso 1.000000     C
    C   1.0     0.351676     0.185020     0.718681  Biso 1.000000     C
    C   1.0     0.851686     0.185020     0.718678  Biso 1.000000     C
    C   1.0     0.243075     0.213549     0.773321  Biso 1.000000     C
    C   1.0     0.743085     0.213550     0.773316  Biso 1.000000     C
    C   1.0     0.367726     0.268875     0.779116  Biso 1.000000     C
    C   1.0     0.867736     0.268875     0.779114  Biso 1.000000     C
    C   1.0     0.255029     0.122539     0.472858  Biso 1.000000     C
    C   1.0     0.755038     0.122542     0.472855  Biso 1.000000     C
    C   1.0     0.121847     0.558471     0.844087  Biso 1.000000     C
    C   1.0     0.621856     0.558473     0.844090  Biso 1.000000     C
    C   1.0     0.497335     0.455100     0.950359  Biso 1.000000     C
    C   1.0     0.997345     0.455100     0.950358  Biso 1.000000     C
    C   1.0     0.103330     0.581305     0.934353  Biso 1.000000     C
    C   1.0     0.603338     0.581305     0.934356  Biso 1.000000     C
    C   1.0     0.060637     0.437869     0.899300  Biso 1.000000     C
    C   1.0     0.560646     0.437869     0.899301  Biso 1.000000     C
    C   1.0     0.096298     0.535939     0.703414  Biso 1.000000     C
    C   1.0     0.596307     0.535944     0.703418  Biso 1.000000     C
    C   1.0     0.185420     0.533483     0.814973  Biso 1.000000     C
    C   1.0     0.685429     0.533488     0.814977  Biso 1.000000     C
    C   1.0     0.076809     0.559724     0.786481  Biso 1.000000     C
    C   1.0     0.576818     0.559726     0.786484  Biso 1.000000     C
    C   1.0     0.201355     0.509940     0.731031  Biso 1.000000     C
    C   1.0     0.701364     0.509947     0.731036  Biso 1.000000     C
    C   1.0     0.088327     0.350236     0.876786  Biso 1.000000     C
    C   1.0     0.588337     0.350236     0.876786  Biso 1.000000     C
    C   1.0     0.205034     0.714476     0.558975  Biso 1.000000     C
    C   1.0     0.705044     0.714480     0.558972  Biso 1.000000     C
    C   1.0     0.080728     0.504993     0.455281  Biso 1.000000     C
    C   1.0     0.580738     0.504998     0.455284  Biso 1.000000     C
    C   1.0     0.186549     0.646948     0.581759  Biso 1.000000     C
    C   1.0     0.686560     0.646954     0.581759  Biso 1.000000     C
    C   1.0     0.144058     0.538975     0.438210  Biso 1.000000     C
    C   1.0     0.644068     0.538979     0.438212  Biso 1.000000     C
    C   1.0     0.179434     0.832409     0.536101  Biso 1.000000     C
    C   1.0     0.679444     0.832412     0.536098  Biso 1.000000     C
    C   1.0     0.268651     0.718845     0.534235  Biso 1.000000     C
    C   1.0     0.768661     0.718845     0.534227  Biso 1.000000     C
    C   1.0     0.159938     0.773094     0.559910  Biso 1.000000     C
    C   1.0     0.659949     0.773099     0.559909  Biso 1.000000     C
    C   1.0     0.284584     0.779248     0.510637  Biso 1.000000     C
    C   1.0     0.784594     0.779247     0.510627  Biso 1.000000     C
    C   1.0     0.171831     0.474264     0.350549  Biso 1.000000     C
    C   1.0     0.671841     0.474267     0.350551  Biso 1.000000     C
    C   1.0     0.038062     0.843900     0.285181  Biso 1.000000     C
    C   1.0     0.538070     0.843899     0.285180  Biso 1.000000     C
    C   1.0     0.413915     0.950125     0.494706  Biso 1.000000     C
    C   1.0     0.913925     0.950125     0.494705  Biso 1.000000     C
    C   1.0     0.019466     0.934106     0.352559  Biso 1.000000     C
    C   1.0     0.519474     0.934105     0.352558  Biso 1.000000     C
    C   1.0     0.477306     0.899203     0.461238  Biso 1.000000     C
    C   1.0     0.977316     0.899203     0.461239  Biso 1.000000     C
    C   1.0     0.012713     0.703341     0.166936  Biso 1.000000     C
    C   1.0     0.512722     0.703340     0.166937  Biso 1.000000     C
    C   1.0     0.101673     0.814894     0.281120  Biso 1.000000     C
    C   1.0     0.601682     0.814895     0.281118  Biso 1.000000     C
    C   1.0     0.493114     0.786296     0.226228  Biso 1.000000     C
    C   1.0     0.993124     0.786298     0.226227  Biso 1.000000     C
    C   1.0     0.117725     0.731057     0.220708  Biso 1.000000     C
    C   1.0     0.617735     0.731057     0.220707  Biso 1.000000     C
    C   1.0     0.005018     0.877319     0.526853  Biso 1.000000     C
    C   1.0     0.505029     0.877317     0.526851  Biso 1.000000     C
    C   1.0     0.371761     0.441509     0.155969  Biso 1.000000     C
    C   1.0     0.871771     0.441509     0.155967  Biso 1.000000     C
    C   1.0     0.247350     0.544794     0.049522  Biso 1.000000     C
    C   1.0     0.747360     0.544794     0.049521  Biso 1.000000     C
    C   1.0     0.353228     0.418599     0.065663  Biso 1.000000     C
    C   1.0     0.853237     0.418599     0.065662  Biso 1.000000     C
    C   1.0     0.310682     0.562009     0.100601  Biso 1.000000     C
    C   1.0     0.810692     0.562009     0.100600  Biso 1.000000     C
    C   1.0     0.346235     0.464170     0.296677  Biso 1.000000     C
    C   1.0     0.846244     0.464169     0.296675  Biso 1.000000     C
    C   1.0     0.435356     0.466484     0.185103  Biso 1.000000     C
    C   1.0     0.935366     0.466483     0.185102  Biso 1.000000     C
    C   1.0     0.326722     0.440342     0.213587  Biso 1.000000     C
    C   1.0     0.826731     0.440341     0.213586  Biso 1.000000     C
    C   1.0     0.451314     0.490073     0.269068  Biso 1.000000     C
    C   1.0     0.951324     0.490073     0.269067  Biso 1.000000     C
    C   1.0     0.338457     0.649625     0.123136  Biso 1.000000     C
    C   1.0     0.838466     0.649624     0.123134  Biso 1.000000     C
    N   1.0     0.441460     0.441610     0.492732  Biso 1.000000     N
    N   1.0     0.941468     0.441609     0.492732  Biso 1.000000     N
    N   1.0     0.490569     0.164276     0.488449  Biso 1.000000     N
    N   1.0     0.990578     0.164276     0.488450  Biso 1.000000     N
    N   1.0     0.274691     0.051211     0.558383  Biso 1.000000     N
    N   1.0     0.774701     0.051212     0.558378  Biso 1.000000     N
    N   1.0     0.323863     0.324518     0.835529  Biso 1.000000     N
    N   1.0     0.823873     0.324518     0.835526  Biso 1.000000     N
    N   1.0     0.108146     0.506953     0.948751  Biso 1.000000     N
    N   1.0     0.608155     0.506953     0.948752  Biso 1.000000     N
    N   1.0     0.157415     0.510653     0.675344  Biso 1.000000     N
    N   1.0     0.657424     0.510660     0.675348  Biso 1.000000     N
    N   1.0     0.191509     0.558387     0.507326  Biso 1.000000     N
    N   1.0     0.691519     0.558393     0.507328  Biso 1.000000     N
    N   1.0     0.240612     0.835472     0.511119  Biso 1.000000     N
    N   1.0     0.740622     0.835473     0.511111  Biso 1.000000     N
    N   1.0     0.024677     0.948580     0.441281  Biso 1.000000     N
    N   1.0     0.524685     0.948581     0.441280  Biso 1.000000     N
    N   1.0     0.073877     0.675383     0.164197  Biso 1.000000     N
    N   1.0     0.573886     0.675382     0.164197  Biso 1.000000     N
    N   1.0     0.358132     0.492894     0.051182  Biso 1.000000     N
    N   1.0     0.858142     0.492894     0.051180  Biso 1.000000     N
    N   1.0     0.407378     0.489420     0.324759  Biso 1.000000     N
    N   1.0     0.907388     0.489419     0.324757  Biso 1.000000     N
    O   1.0     0.330064     0.516864     0.487197  Biso 1.000000     O
    O   1.0     0.830074     0.516864     0.487196  Biso 1.000000     O
    O   1.0     0.283261     0.499675     0.591478  Biso 1.000000     O
    O   1.0     0.783271     0.499681     0.591481  Biso 1.000000     O
    O   1.0     0.163163     0.970373     0.483575  Biso 1.000000     O
    O   1.0     0.663173     0.970374     0.483569  Biso 1.000000     O
    O   1.0     0.116433     0.091572     0.500042  Biso 1.000000     O
    O   1.0     0.616442     0.091573     0.500040  Biso 1.000000     O
    O   1.0    -0.003337     0.512987     0.029596  Biso 1.000000     O
    O   1.0     0.496672     0.512986     0.029597  Biso 1.000000     O
    O   1.0     0.449831     0.408336     0.908532  Biso 1.000000     O
    O   1.0     0.949841     0.408337     0.908531  Biso 1.000000     O
    O   1.0     0.080067     0.483175     0.512921  Biso 1.000000     O
    O   1.0     0.580076     0.483181     0.512925  Biso 1.000000     O
    O   1.0     0.033207     0.500400     0.408668  Biso 1.000000     O
    O   1.0     0.533217     0.500403     0.408670  Biso 1.000000     O
    O   1.0     0.413201     0.029366     0.515984  Biso 1.000000     O
    O   1.0     0.913212     0.029366     0.515984  Biso 1.000000     O
    O   1.0     0.366428     0.908167     0.499521  Biso 1.000000     O
    O   1.0     0.866437     0.908166     0.499515  Biso 1.000000     O
    O   1.0     0.246635     0.486879     0.970289  Biso 1.000000     O
    O   1.0     0.746644     0.486878     0.970289  Biso 1.000000     O
    O   1.0     0.199882     0.591565     0.091330  Biso 1.000000     O
    O   1.0     0.699892     0.591564     0.091330  Biso 1.000000     O
   Zn   1.0     0.433538     0.531328     0.450793  Biso 1.000000    Zn
   Zn   1.0     0.933547     0.531326     0.450791  Biso 1.000000    Zn
   Zn   1.0     0.266831     0.919547     0.469105  Biso 1.000000    Zn
   Zn   1.0     0.766841     0.919548     0.469098  Biso 1.000000    Zn
   Zn   1.0     0.100178     0.549474     0.080375  Biso 1.000000    Zn
   Zn   1.0     0.600187     0.549473     0.080376  Biso 1.000000    Zn
   Zn   1.0     0.183535     0.468741     0.549342  Biso 1.000000    Zn
   Zn   1.0     0.683545     0.468750     0.549347  Biso 1.000000    Zn
   Zn   1.0     0.016826     0.080238     0.530456  Biso 1.000000    Zn
   Zn   1.0     0.516835     0.080239     0.530454  Biso 1.000000    Zn
   Zn   1.0     0.350180     0.450411     0.919539  Biso 1.000000    Zn
   Zn   1.0     0.850189     0.450411     0.919537  Biso 1.000000    Zn
   Br   1.0     0.449000     0.680662     0.547796  Biso 1.000000    Br
   Br   1.0     0.949011     0.680660     0.547794  Biso 1.000000    Br
   Br   1.0     0.281673     0.867293     0.319584  Biso 1.000000    Br
   Br   1.0     0.781684     0.867297     0.319578  Biso 1.000000    Br
   Br   1.0     0.115653     0.452677     0.133126  Biso 1.000000    Br
   Br   1.0     0.615663     0.452676     0.133127  Biso 1.000000    Br
   Br   1.0     0.198946     0.319412     0.452322  Biso 1.000000    Br
   Br   1.0     0.698954     0.319419     0.452329  Biso 1.000000    Br
   Br   1.0     0.031718     0.132685     0.680027  Biso 1.000000    Br
   Br   1.0     0.531728     0.132684     0.680025  Biso 1.000000    Br
   Br   1.0     0.365640     0.547349     0.866944  Biso 1.000000    Br
   Br   1.0     0.865648     0.547350     0.866943  Biso 1.000000    Br
