#======================================================================

# CRYSTAL DATA

#----------------------------------------------------------------------

data_VESTA_phase_1


_pd_phase_name                         MOF
_cell_length_a                         20.90800
_cell_length_b                         17.70500
_cell_length_c                         17.71900
_cell_angle_alpha                      119.81100
_cell_angle_beta                       90.01500
_cell_angle_gamma                      89.99400
_symmetry_space_group_name_H-M         "P 1"
_symmetry_Int_Tables_number            1

loop_
_symmetry_equiv_pos_as_xyz
   "x, y, z"

loop_
   _atom_site_label
   _atom_site_occupancy
   _atom_site_fract_x
   _atom_site_fract_y
   _atom_site_fract_z
   _atom_site_adp_type
   _atom_site_B_iso_or_equiv
   _atom_site_type_symbol
    H   1.0     0.477537     0.540867     0.481101  Biso 1.000000     H
    H   1.0     0.977534     0.540873     0.481112  Biso 1.000000     H
    H   1.0     0.450501     0.483615     0.328081  Biso 1.000000     H
    H   1.0     0.950501     0.483632     0.328095  Biso 1.000000     H
    H   1.0     0.370809     0.448572     0.297491  Biso 1.000000     H
    H   1.0     0.870809     0.448593     0.297501  Biso 1.000000     H
    H   1.0     0.417480     0.403090     0.350024  Biso 1.000000     H
    H   1.0     0.917477     0.403103     0.350029  Biso 1.000000     H
    H   1.0     0.376024     0.594459     0.430963  Biso 1.000000     H
    H   1.0     0.876024     0.594475     0.430980  Biso 1.000000     H
    H   1.0     0.352287     0.768505     0.574886  Biso 1.000000     H
    H   1.0     0.852286     0.768515     0.574914  Biso 1.000000     H
    H   1.0     0.388702     0.875747     0.530442  Biso 1.000000     H
    H   1.0     0.888699     0.875755     0.530466  Biso 1.000000     H
    H   1.0     0.046908     0.672230     0.533305  Biso 1.000000     H
    H   1.0     0.546903     0.672229     0.533293  Biso 1.000000     H
    H   1.0     0.074107     0.781307     0.489751  Biso 1.000000     H
    H   1.0     0.574105     0.781307     0.489741  Biso 1.000000     H
    H   1.0     0.460862     0.644374     0.629852  Biso 1.000000     H
    H   1.0     0.960862     0.644373     0.629865  Biso 1.000000     H
    H   1.0     0.379209     0.653409     0.607125  Biso 1.000000     H
    H   1.0     0.879208     0.653410     0.607142  Biso 1.000000     H
    H   1.0     0.313110     0.939664     0.459359  Biso 1.000000     H
    H   1.0     0.813110     0.939674     0.459354  Biso 1.000000     H
    H   1.0     0.286356     0.846889     0.520823  Biso 1.000000     H
    H   1.0     0.786355     0.846908     0.520828  Biso 1.000000     H
    H   1.0     0.206504     0.850482     0.554999  Biso 1.000000     H
    H   1.0     0.706502     0.850499     0.554999  Biso 1.000000     H
    H   1.0     0.252370     0.948941     0.599599  Biso 1.000000     H
    H   1.0     0.752365     0.948961     0.599596  Biso 1.000000     H
    H   1.0     0.211896     0.836288     0.408299  Biso 1.000000     H
    H   1.0     0.711899     0.836294     0.408294  Biso 1.000000     H
    H   1.0     0.184998     0.807465     0.234770  Biso 1.000000     H
    H   1.0     0.684998     0.807470     0.234762  Biso 1.000000     H
    H   1.0     0.219920     0.655792     0.127013  Biso 1.000000     H
    H   1.0     0.719917     0.655796     0.127010  Biso 1.000000     H
    H   1.0     0.380948     0.859228     0.326150  Biso 1.000000     H
    H   1.0     0.880946     0.859229     0.326147  Biso 1.000000     H
    H   1.0     0.406523     0.706559     0.216917  Biso 1.000000     H
    H   1.0     0.906519     0.706558     0.216919  Biso 1.000000     H
    H   1.0     0.295443     0.984557     0.355381  Biso 1.000000     H
    H   1.0     0.795445     0.984560     0.355371  Biso 1.000000     H
    H   1.0     0.213649     0.954036     0.348251  Biso 1.000000     H
    H   1.0     0.713649     0.954042     0.348241  Biso 1.000000     H
    H   1.0     0.144278     0.519478     0.059533  Biso 1.000000     H
    H   1.0     0.644275     0.519482     0.059530  Biso 1.000000     H
    H   1.0     0.117182     0.673073     0.152170  Biso 1.000000     H
    H   1.0     0.617178     0.673078     0.152154  Biso 1.000000     H
    H   1.0     0.037237     0.703212     0.148336  Biso 1.000000     H
    H   1.0     0.537232     0.703215     0.148321  Biso 1.000000     H
    H   1.0     0.083173     0.649912     0.050046  Biso 1.000000     H
    H   1.0     0.583166     0.649908     0.050029  Biso 1.000000     H
    H   1.0     0.043125     0.570784     0.163022  Biso 1.000000     H
    H   1.0     0.543124     0.570794     0.163021  Biso 1.000000     H
    H   1.0     0.017561     0.426242     0.193140  Biso 1.000000     H
    H   1.0     0.517559     0.426259     0.193148  Biso 1.000000     H
    H   1.0     0.053104     0.470338     0.344741  Biso 1.000000     H
    H   1.0     0.553101     0.470359     0.344749  Biso 1.000000     H
    H   1.0     0.212835     0.467365     0.140178  Biso 1.000000     H
    H   1.0     0.712833     0.467375     0.140182  Biso 1.000000     H
    H   1.0     0.239103     0.510850     0.292771  Biso 1.000000     H
    H   1.0     0.739101     0.510864     0.292777  Biso 1.000000     H
    H   1.0     0.127357     0.370858     0.015547  Biso 1.000000     H
    H   1.0     0.627356     0.370864     0.015553  Biso 1.000000     H
    H   1.0     0.045553     0.393576     0.046241  Biso 1.000000     H
    H   1.0     0.545552     0.393582     0.046246  Biso 1.000000     H
    H   1.0     0.227560     0.458976     0.519006  Biso 1.000000     H
    H   1.0     0.727557     0.458990     0.519011  Biso 1.000000     H
    H   1.0     0.200604     0.516562     0.672128  Biso 1.000000     H
    H   1.0     0.700599     0.516592     0.672138  Biso 1.000000     H
    H   1.0     0.120927     0.551644     0.702689  Biso 1.000000     H
    H   1.0     0.620920     0.551665     0.702694  Biso 1.000000     H
    H   1.0     0.167568     0.596959     0.649998  Biso 1.000000     H
    H   1.0     0.667558     0.596981     0.650001  Biso 1.000000     H
    H   1.0     0.126104     0.405620     0.569385  Biso 1.000000     H
    H   1.0     0.626104     0.405638     0.569396  Biso 1.000000     H
    H   1.0     0.102174     0.231457     0.425450  Biso 1.000000     H
    H   1.0     0.602165     0.231486     0.425469  Biso 1.000000     H
    H   1.0     0.138633     0.124163     0.469823  Biso 1.000000     H
    H   1.0     0.638626     0.124185     0.469832  Biso 1.000000     H
    H   1.0     0.296847     0.327521     0.466765  Biso 1.000000     H
    H   1.0     0.796845     0.327523     0.466744  Biso 1.000000     H
    H   1.0     0.324080     0.218421     0.510288  Biso 1.000000     H
    H   1.0     0.824080     0.218417     0.510258  Biso 1.000000     H
    H   1.0     0.210642     0.355399     0.370245  Biso 1.000000     H
    H   1.0     0.710635     0.355419     0.370249  Biso 1.000000     H
    H   1.0     0.129033     0.346521     0.393214  Biso 1.000000     H
    H   1.0     0.629026     0.346543     0.393222  Biso 1.000000     H
    H   1.0     0.063109     0.060084     0.540751  Biso 1.000000     H
    H   1.0     0.563106     0.060083     0.540731  Biso 1.000000     H
    H   1.0     0.036431     0.152548     0.479013  Biso 1.000000     H
    H   1.0     0.536419     0.152526     0.478971  Biso 1.000000     H
    H   1.0     0.456561     0.149075     0.444814  Biso 1.000000     H
    H   1.0     0.956570     0.149090     0.444836  Biso 1.000000     H
    H   1.0     0.502304     0.050513     0.400318  Biso 1.000000     H
    H   1.0     0.000000     0.050534     0.400344  Biso 1.000000     H
    H   1.0     0.461927     0.163483     0.591595  Biso 1.000000     H
    H   1.0     0.961920     0.163483     0.591613  Biso 1.000000     H
    H   1.0     0.434983     0.192510     0.765240  Biso 1.000000     H
    H   1.0     0.934973     0.192520     0.765245  Biso 1.000000     H
    H   1.0     0.469912     0.344201     0.872953  Biso 1.000000     H
    H   1.0     0.969905     0.344212     0.872950  Biso 1.000000     H
    H   1.0     0.130931     0.140688     0.674002  Biso 1.000000     H
    H   1.0     0.630928     0.140699     0.673978  Biso 1.000000     H
    H   1.0     0.156514     0.293388     0.783181  Biso 1.000000     H
    H   1.0     0.656510     0.293396     0.783164  Biso 1.000000     H
    H   1.0     0.045422     0.015392     0.644879  Biso 1.000000     H
    H   1.0     0.545426     0.015394     0.644862  Biso 1.000000     H
    H   1.0     0.463633     0.045892     0.651875  Biso 1.000000     H
    H   1.0     0.963623     0.045895     0.651890  Biso 1.000000     H
    H   1.0     0.394257     0.480405     0.940536  Biso 1.000000     H
    H   1.0     0.894254     0.480403     0.940537  Biso 1.000000     H
    H   1.0     0.367021     0.326871     0.847645  Biso 1.000000     H
    H   1.0     0.867016     0.326866     0.847653  Biso 1.000000     H
    H   1.0     0.287042     0.296846     0.851447  Biso 1.000000     H
    H   1.0     0.787037     0.296844     0.851456  Biso 1.000000     H
    H   1.0     0.333031     0.349921     0.949729  Biso 1.000000     H
    H   1.0     0.833025     0.349922     0.949738  Biso 1.000000     H
    H   1.0     0.293031     0.429420     0.837044  Biso 1.000000     H
    H   1.0     0.793029     0.429413     0.837045  Biso 1.000000     H
    H   1.0     0.267697     0.573900     0.806994  Biso 1.000000     H
    H   1.0     0.767689     0.573869     0.806985  Biso 1.000000     H
    H   1.0     0.303181     0.529684     0.655366  Biso 1.000000     H
    H   1.0     0.803173     0.529653     0.655357  Biso 1.000000     H
    H   1.0     0.462933     0.532469     0.859909  Biso 1.000000     H
    H   1.0     0.962933     0.532486     0.859915  Biso 1.000000     H
    H   1.0     0.489153     0.488905     0.707300  Biso 1.000000     H
    H   1.0     0.989153     0.488919     0.707306  Biso 1.000000     H
    H   1.0     0.377607     0.629013     0.984549  Biso 1.000000     H
    H   1.0     0.877604     0.629009     0.984547  Biso 1.000000     H
    H   1.0     0.295758     0.606610     0.953923  Biso 1.000000     H
    H   1.0     0.795754     0.606605     0.953922  Biso 1.000000     H
    C   1.0     0.407136     0.462612     0.347381  Biso 1.000000     C
    C   1.0     0.907135     0.462628     0.347391  Biso 1.000000     C
    C   1.0     0.383844     0.535329     0.435563  Biso 1.000000     C
    C   1.0     0.883842     0.535341     0.435575  Biso 1.000000     C
    C   1.0     0.402007     0.769041     0.556447  Biso 1.000000     C
    C   1.0     0.902004     0.769049     0.556471  Biso 1.000000     C
    C   1.0     0.421447     0.828548     0.531505  Biso 1.000000     C
    C   1.0     0.921444     0.828556     0.531527  Biso 1.000000     C
    C   1.0     0.318774     0.511123     0.458080  Biso 1.000000     C
    C   1.0     0.818771     0.511135     0.458088  Biso 1.000000     C
    C   1.0     0.446462     0.710241     0.557010  Biso 1.000000     C
    C   1.0     0.946459     0.710247     0.557029  Biso 1.000000     C
    C   1.0     0.009455     0.714900     0.532852  Biso 1.000000     C
    C   1.0     0.509451     0.714897     0.532836  Biso 1.000000     C
    C   1.0     0.025456     0.775650     0.508243  Biso 1.000000     C
    C   1.0     0.525453     0.775648     0.508230  Biso 1.000000     C
    C   1.0     0.427895     0.641966     0.580322  Biso 1.000000     C
    C   1.0     0.927893     0.641968     0.580338  Biso 1.000000     C
    C   1.0     0.242652     0.886407     0.540638  Biso 1.000000     C
    C   1.0     0.742650     0.886423     0.540637  Biso 1.000000     C
    C   1.0     0.219474     0.900336     0.466634  Biso 1.000000     C
    C   1.0     0.719474     0.900345     0.466628  Biso 1.000000     C
    C   1.0     0.234707     0.787858     0.233045  Biso 1.000000     C
    C   1.0     0.734706     0.787863     0.233039  Biso 1.000000     C
    C   1.0     0.253310     0.703404     0.173307  Biso 1.000000     C
    C   1.0     0.753308     0.703407     0.173304  Biso 1.000000     C
    C   1.0     0.154339     0.946762     0.489840  Biso 1.000000     C
    C   1.0     0.654337     0.946766     0.489826  Biso 1.000000     C
    C   1.0     0.280001     0.846417     0.290516  Biso 1.000000     C
    C   1.0     0.780000     0.846421     0.290510  Biso 1.000000     C
    C   1.0     0.342900     0.816782     0.284501  Biso 1.000000     C
    C   1.0     0.842899     0.816784     0.284498  Biso 1.000000     C
    C   1.0     0.358015     0.731454     0.223663  Biso 1.000000     C
    C   1.0     0.858012     0.731454     0.223662  Biso 1.000000     C
    C   1.0     0.262407     0.938024     0.358816  Biso 1.000000     C
    C   1.0     0.762408     0.938030     0.358808  Biso 1.000000     C
    C   1.0     0.073498     0.653249     0.112610  Biso 1.000000     C
    C   1.0     0.573493     0.653250     0.112597  Biso 1.000000     C
    C   1.0     0.050597     0.565315     0.098933  Biso 1.000000     C
    C   1.0     0.550594     0.565320     0.098929  Biso 1.000000     C
    C   1.0     0.067248     0.444510     0.212467  Biso 1.000000     C
    C   1.0     0.567246     0.444526     0.212474  Biso 1.000000     C
    C   1.0     0.086196     0.469317     0.296889  Biso 1.000000     C
    C   1.0     0.586194     0.469335     0.296896  Biso 1.000000     C
    C   1.0     0.485421     0.541971     0.052646  Biso 1.000000     C
    C   1.0     0.985417     0.541971     0.052648  Biso 1.000000     C
    C   1.0     0.112163     0.443856     0.153606  Biso 1.000000     C
    C   1.0     0.612161     0.443868     0.153612  Biso 1.000000     C
    C   1.0     0.175061     0.467904     0.182902  Biso 1.000000     C
    C   1.0     0.675059     0.467916     0.182907  Biso 1.000000     C
    C   1.0     0.190553     0.492439     0.268205  Biso 1.000000     C
    C   1.0     0.690551     0.492454     0.268211  Biso 1.000000     C
    C   1.0     0.094219     0.420436     0.061978  Biso 1.000000     C
    C   1.0     0.594217     0.420443     0.061982  Biso 1.000000     C
    C   1.0     0.157227     0.537505     0.652766  Biso 1.000000     C
    C   1.0     0.657221     0.537528     0.652772  Biso 1.000000     C
    C   1.0     0.133897     0.464677     0.564648  Biso 1.000000     C
    C   1.0     0.633894     0.464694     0.564656  Biso 1.000000     C
    C   1.0     0.151914     0.230867     0.443817  Biso 1.000000     C
    C   1.0     0.651907     0.230889     0.443825  Biso 1.000000     C
    C   1.0     0.171377     0.171339     0.468733  Biso 1.000000     C
    C   1.0     0.671372     0.171357     0.468735  Biso 1.000000     C
    C   1.0     0.068802     0.488812     0.542078  Biso 1.000000     C
    C   1.0     0.568798     0.488822     0.542081  Biso 1.000000     C
    C   1.0     0.196368     0.289636     0.443211  Biso 1.000000     C
    C   1.0     0.696362     0.289651     0.443210  Biso 1.000000     C
    C   1.0     0.259387     0.284897     0.467274  Biso 1.000000     C
    C   1.0     0.759384     0.284903     0.467259  Biso 1.000000     C
    C   1.0     0.275408     0.224132     0.491868  Biso 1.000000     C
    C   1.0     0.775407     0.224135     0.491848  Biso 1.000000     C
    C   1.0     0.177769     0.357903     0.419886  Biso 1.000000     C
    C   1.0     0.677763     0.357922     0.419891  Biso 1.000000     C
    C   1.0     0.492661     0.113117     0.459225  Biso 1.000000     C
    C   1.0     0.992668     0.113133     0.459252  Biso 1.000000     C
    C   1.0     0.469477     0.099379     0.533331  Biso 1.000000     C
    C   1.0     0.969474     0.099382     0.533346  Biso 1.000000     C
    C   1.0    -0.015307     0.212112     0.766988  Biso 1.000000     C
    C   1.0     0.484693     0.212107     0.766980  Biso 1.000000     C
    C   1.0     0.003299     0.296582     0.826694  Biso 1.000000     C
    C   1.0     0.503298     0.296576     0.826691  Biso 1.000000     C
    C   1.0     0.404330     0.052974     0.510181  Biso 1.000000     C
    C   1.0     0.904329     0.052976     0.510182  Biso 1.000000     C
    C   1.0     0.029980     0.153528     0.709565  Biso 1.000000     C
    C   1.0     0.529980     0.153528     0.709549  Biso 1.000000     C
    C   1.0     0.092885     0.183152     0.715607  Biso 1.000000     C
    C   1.0     0.592882     0.183158     0.715587  Biso 1.000000     C
    C   1.0     0.108005     0.268496     0.776413  Biso 1.000000     C
    C   1.0     0.608001     0.268501     0.776399  Biso 1.000000     C
    C   1.0     0.012393     0.061878     0.641332  Biso 1.000000     C
    C   1.0     0.512394     0.061878     0.641316  Biso 1.000000     C
    C   1.0     0.323358     0.346719     0.887219  Biso 1.000000     C
    C   1.0     0.823353     0.346717     0.887227  Biso 1.000000     C
    C   1.0     0.300535     0.434753     0.901074  Biso 1.000000     C
    C   1.0     0.800532     0.434749     0.901076  Biso 1.000000     C
    C   1.0     0.317363     0.555536     0.787649  Biso 1.000000     C
    C   1.0     0.817357     0.555516     0.787643  Biso 1.000000     C
    C   1.0     0.336280     0.530674     0.703216  Biso 1.000000     C
    C   1.0     0.836274     0.530653     0.703211  Biso 1.000000     C
    C   1.0     0.235393     0.458091     0.947386  Biso 1.000000     C
    C   1.0     0.735389     0.458090     0.947386  Biso 1.000000     C
    C   1.0     0.362287     0.556135     0.846502  Biso 1.000000     C
    C   1.0     0.862283     0.556129     0.846501  Biso 1.000000     C
    C   1.0     0.425157     0.531972     0.817186  Biso 1.000000     C
    C   1.0     0.925156     0.531978     0.817189  Biso 1.000000     C
    C   1.0     0.440620     0.507391     0.731875  Biso 1.000000     C
    C   1.0     0.940619     0.507396     0.731877  Biso 1.000000     C
    C   1.0     0.344370     0.579577     0.938129  Biso 1.000000     C
    C   1.0     0.844366     0.579573     0.938129  Biso 1.000000     C
    N   1.0     0.430961     0.552233     0.504539  Biso 1.000000     N
    N   1.0     0.930958     0.552239     0.504550  Biso 1.000000     N
    N   1.0     0.482079     0.831869     0.507017  Biso 1.000000     N
    N   1.0     0.982075     0.831873     0.507033  Biso 1.000000     N
    N   1.0     0.266400     0.951959     0.448646  Biso 1.000000     N
    N   1.0     0.766400     0.951967     0.448639  Biso 1.000000     N
    N   1.0     0.313882     0.674850     0.168607  Biso 1.000000     N
    N   1.0     0.813879     0.674851     0.168606  Biso 1.000000     N
    N   1.0     0.097652     0.496173     0.047522  Biso 1.000000     N
    N   1.0     0.597649     0.496176     0.047521  Biso 1.000000     N
    N   1.0     0.146763     0.493629     0.325113  Biso 1.000000     N
    N   1.0     0.646761     0.493646     0.325120  Biso 1.000000     N
    N   1.0     0.180963     0.447659     0.495615  Biso 1.000000     N
    N   1.0     0.680959     0.447676     0.495622  Biso 1.000000     N
    N   1.0     0.232037     0.167942     0.493126  Biso 1.000000     N
    N   1.0     0.732034     0.167951     0.493115  Biso 1.000000     N
    N   1.0     0.016396     0.047817     0.551459  Biso 1.000000     N
    N   1.0     0.516394     0.047816     0.551442  Biso 1.000000     N
    N   1.0     0.063878     0.325117     0.831430  Biso 1.000000     N
    N   1.0     0.563875     0.325116     0.831424  Biso 1.000000     N
    N   1.0     0.347655     0.503794     0.952531  Biso 1.000000     N
    N   1.0     0.847652     0.503791     0.952531  Biso 1.000000     N
    N   1.0     0.396821     0.506250     0.674972  Biso 1.000000     N
    N   1.0     0.896817     0.506242     0.674971  Biso 1.000000     N
    O   1.0     0.316728     0.487154     0.514993  Biso 1.000000     O
    O   1.0     0.816724     0.487159     0.514996  Biso 1.000000     O
    O   1.0     0.271681     0.515625     0.415477  Biso 1.000000     O
    O   1.0     0.771679     0.515641     0.415486  Biso 1.000000     O
    O   1.0     0.152435     0.027510     0.513661  Biso 1.000000     O
    O   1.0     0.652432     0.027514     0.513645  Biso 1.000000     O
    O   1.0     0.107102     0.899595     0.484770  Biso 1.000000     O
    O   1.0     0.607101     0.899596     0.484753  Biso 1.000000     O
    O   1.0     0.483337     0.484813     0.972194  Biso 1.000000     O
    O   1.0     0.983333     0.484815     0.972196  Biso 1.000000     O
    O   1.0     0.438296     0.584239     0.099651  Biso 1.000000     O
    O   1.0     0.938292     0.584239     0.099653  Biso 1.000000     O
    O   1.0     0.066736     0.512771     0.485155  Biso 1.000000     O
    O   1.0     0.566731     0.512779     0.485157  Biso 1.000000     O
    O   1.0     0.021716     0.484289     0.584648  Biso 1.000000     O
    O   1.0     0.521712     0.484295     0.584649  Biso 1.000000     O
    O   1.0     0.402449     0.972221     0.486343  Biso 1.000000     O
    O   1.0     0.902445     0.972225     0.486352  Biso 1.000000     O
    O   1.0     0.357080     0.100153     0.515301  Biso 1.000000     O
    O   1.0     0.857082     0.100152     0.515284  Biso 1.000000     O
    O   1.0     0.233341     0.515224     0.027842  Biso 1.000000     O
    O   1.0     0.733337     0.515224     0.027842  Biso 1.000000     O
    O   1.0     0.188257     0.415815     0.900376  Biso 1.000000     O
    O   1.0     0.688253     0.415813     0.900377  Biso 1.000000     O
   Cl   1.0     0.426414     0.318453     0.455995  Biso 1.000000    Cl
   Cl   1.0     0.926409     0.318453     0.455984  Biso 1.000000    Cl
   Cl   1.0     0.261467     0.137637     0.681847  Biso 1.000000    Cl
   Cl   1.0     0.761466     0.137655     0.681836  Biso 1.000000    Cl
   Cl   1.0     0.092489     0.544004     0.861704  Biso 1.000000    Cl
   Cl   1.0     0.592486     0.543995     0.861694  Biso 1.000000    Cl
   Cl   1.0     0.176427     0.681430     0.544060  Biso 1.000000    Cl
   Cl   1.0     0.676421     0.681447     0.544066  Biso 1.000000    Cl
   Cl   1.0     0.511460     0.861951     0.318223  Biso 1.000000    Cl
   Cl   1.0     0.000000     0.861959     0.318238  Biso 1.000000    Cl
   Cl   1.0     0.342512     0.455902     0.138230  Biso 1.000000    Cl
   Cl   1.0     0.842509     0.455904     0.138234  Biso 1.000000    Cl
   Zn   1.0     0.422470     0.461313     0.546773  Biso 1.000000    Zn
   Zn   1.0     0.922466     0.461310     0.546773  Biso 1.000000    Zn
   Zn   1.0     0.258400     0.085037     0.538813  Biso 1.000000    Zn
   Zn   1.0     0.758397     0.085046     0.538800  Biso 1.000000    Zn
   Zn   1.0     0.089132     0.453513     0.914640  Biso 1.000000    Zn
   Zn   1.0     0.589128     0.453510     0.914637  Biso 1.000000    Zn
   Zn   1.0     0.172467     0.538559     0.453330  Biso 1.000000    Zn
   Zn   1.0     0.672464     0.538575     0.453337  Biso 1.000000    Zn
   Zn   1.0     0.008414     0.914709     0.461303  Biso 1.000000    Zn
   Zn   1.0     0.508411     0.914708     0.461288  Biso 1.000000    Zn
   Zn   1.0     0.339133     0.546473     0.085397  Biso 1.000000    Zn
   Zn   1.0     0.839130     0.546474     0.085399  Biso 1.000000    Zn
