#======================================================================

# CRYSTAL DATA

#----------------------------------------------------------------------

data_VESTA_phase_1


_pd_phase_name                         MOF
_cell_length_a                         16.11700
_cell_length_b                         18.25700
_cell_length_c                         16.22900
_cell_angle_alpha                      86.31800
_cell_angle_beta                       81.55800
_cell_angle_gamma                      63.80200
_symmetry_space_group_name_H-M         "P 1"
_symmetry_Int_Tables_number            1

loop_
_symmetry_equiv_pos_as_xyz
   "x, y, z"

loop_
   _atom_site_label
   _atom_site_occupancy
   _atom_site_fract_x
   _atom_site_fract_y
   _atom_site_fract_z
   _atom_site_adp_type
   _atom_site_B_iso_or_equiv
   _atom_site_type_symbol
    H   1.0     0.410994     0.113051     0.600345  Biso 1.000000     H
    H   1.0     0.410992     0.613060     0.600345  Biso 1.000000     H
    H   1.0     0.910988     0.113050     0.600345  Biso 1.000000     H
    H   1.0     0.910986     0.613060     0.600346  Biso 1.000000     H
    H   1.0     0.204706     0.048569     0.369328  Biso 1.000000     H
    H   1.0     0.204704     0.548579     0.369328  Biso 1.000000     H
    H   1.0     0.704701     0.048569     0.369328  Biso 1.000000     H
    H   1.0     0.704698     0.548579     0.369328  Biso 1.000000     H
    H   1.0     0.156477     0.018562     0.293751  Biso 1.000000     H
    H   1.0     0.156475     0.518573     0.293751  Biso 1.000000     H
    H   1.0     0.656472     0.018563     0.293750  Biso 1.000000     H
    H   1.0     0.656469     0.518573     0.293751  Biso 1.000000     H
    H   1.0     0.346174     0.230404     0.357755  Biso 1.000000     H
    H   1.0     0.346172     0.730415     0.357755  Biso 1.000000     H
    H   1.0     0.846167     0.230403     0.357756  Biso 1.000000     H
    H   1.0     0.846165     0.730414     0.357756  Biso 1.000000     H
    H   1.0     0.475605     0.113106     0.899781  Biso 1.000000     H
    H   1.0     0.475603     0.613117     0.899781  Biso 1.000000     H
    H   1.0     0.975600     0.113105     0.899781  Biso 1.000000     H
    H   1.0     0.975597     0.613118     0.899782  Biso 1.000000     H
    H   1.0     0.246028     0.049086     0.130786  Biso 1.000000     H
    H   1.0     0.246024     0.549098     0.130787  Biso 1.000000     H
    H   1.0     0.746021     0.049086     0.130786  Biso 1.000000     H
    H   1.0     0.746019     0.549098     0.130786  Biso 1.000000     H
    H   1.0     0.324405     0.018867     0.206264  Biso 1.000000     H
    H   1.0     0.324403     0.518878     0.206264  Biso 1.000000     H
    H   1.0     0.824400     0.018866     0.206263  Biso 1.000000     H
    H   1.0     0.824397     0.518878     0.206264  Biso 1.000000     H
    H   1.0     0.423638     0.230188     0.142198  Biso 1.000000     H
    H   1.0     0.423637     0.730199     0.142198  Biso 1.000000     H
    H   1.0     0.923633     0.230188     0.142198  Biso 1.000000     H
    H   1.0     0.923631     0.730199     0.142199  Biso 1.000000     H
    H   1.0     0.088991     0.386965     0.399628  Biso 1.000000     H
    H   1.0     0.088991     0.886977     0.399628  Biso 1.000000     H
    H   1.0     0.588985     0.386965     0.399629  Biso 1.000000     H
    H   1.0     0.588985     0.886977     0.399629  Biso 1.000000     H
    H   1.0     0.295278     0.451448     0.630646  Biso 1.000000     H
    H   1.0     0.295279     0.951459     0.630646  Biso 1.000000     H
    H   1.0     0.795273     0.451447     0.630646  Biso 1.000000     H
    H   1.0     0.795273     0.951459     0.630646  Biso 1.000000     H
    H   1.0     0.343507     0.481454     0.706223  Biso 1.000000     H
    H   1.0     0.343508     0.981465     0.706223  Biso 1.000000     H
    H   1.0     0.843502     0.481454     0.706223  Biso 1.000000     H
    H   1.0     0.843502     0.981464     0.706223  Biso 1.000000     H
    H   1.0     0.153812     0.269612     0.642218  Biso 1.000000     H
    H   1.0     0.153812     0.769623     0.642218  Biso 1.000000     H
    H   1.0     0.653806     0.269613     0.642219  Biso 1.000000     H
    H   1.0     0.653806     0.769623     0.642219  Biso 1.000000     H
    H   1.0     0.024380     0.386910     0.100192  Biso 1.000000     H
    H   1.0     0.024380     0.886921     0.100193  Biso 1.000000     H
    H   1.0     0.524373     0.386911     0.100193  Biso 1.000000     H
    H   1.0     0.524375     0.886920     0.100192  Biso 1.000000     H
    H   1.0     0.253958     0.450930     0.869188  Biso 1.000000     H
    H   1.0     0.253958     0.950940     0.869187  Biso 1.000000     H
    H   1.0     0.753952     0.450930     0.869187  Biso 1.000000     H
    H   1.0     0.753952     0.950941     0.869188  Biso 1.000000     H
    H   1.0     0.175581     0.481150     0.793710  Biso 1.000000     H
    H   1.0     0.175580     0.981161     0.793710  Biso 1.000000     H
    H   1.0     0.675574     0.481150     0.793710  Biso 1.000000     H
    H   1.0     0.675574     0.981161     0.793710  Biso 1.000000     H
    H   1.0     0.076348     0.269828     0.857774  Biso 1.000000     H
    H   1.0     0.076345     0.769840     0.857776  Biso 1.000000     H
    H   1.0     0.576340     0.269829     0.857775  Biso 1.000000     H
    H   1.0     0.576340     0.769840     0.857774  Biso 1.000000     H
    C   1.0     0.300995     0.102894     0.503178  Biso 1.000000     C
    C   1.0     0.300993     0.602904     0.503178  Biso 1.000000     C
    C   1.0     0.800989     0.102893     0.503178  Biso 1.000000     C
    C   1.0     0.800987     0.602903     0.503179  Biso 1.000000     C
    C   1.0     0.451506     0.063111     0.556388  Biso 1.000000     C
    C   1.0     0.451504     0.563121     0.556389  Biso 1.000000     C
    C   1.0     0.951500     0.063110     0.556388  Biso 1.000000     C
    C   1.0     0.951498     0.563120     0.556389  Biso 1.000000     C
    C   1.0     0.453441     0.485098     0.440233  Biso 1.000000     C
    C   1.0     0.453441     0.985110     0.440233  Biso 1.000000     C
    C   1.0     0.953435     0.485098     0.440233  Biso 1.000000     C
    C   1.0     0.953435     0.985110     0.440233  Biso 1.000000     C
    C   1.0     0.403850     0.049461     0.497974  Biso 1.000000     C
    C   1.0     0.403848     0.549471     0.497974  Biso 1.000000     C
    C   1.0     0.903844     0.049461     0.497974  Biso 1.000000     C
    C   1.0     0.903842     0.549471     0.497974  Biso 1.000000     C
    C   1.0     0.064622     0.117460     0.364479  Biso 1.000000     C
    C   1.0     0.064619     0.617470     0.364479  Biso 1.000000     C
    C   1.0     0.564616     0.117460     0.364479  Biso 1.000000     C
    C   1.0     0.564614     0.617470     0.364479  Biso 1.000000     C
    C   1.0     0.418136     0.200151     0.369834  Biso 1.000000     C
    C   1.0     0.418134     0.700162     0.369835  Biso 1.000000     C
    C   1.0     0.918130     0.200150     0.369835  Biso 1.000000     C
    C   1.0     0.918128     0.700161     0.369835  Biso 1.000000     C
    C   1.0     0.410334     0.463337     0.374816  Biso 1.000000     C
    C   1.0     0.410334     0.963349     0.374816  Biso 1.000000     C
    C   1.0     0.910328     0.463337     0.374816  Biso 1.000000     C
    C   1.0     0.910328     0.963348     0.374816  Biso 1.000000     C
    C   1.0     0.095842     0.103107     0.996771  Biso 1.000000     C
    C   1.0     0.095838     0.603119     0.996773  Biso 1.000000     C
    C   1.0     0.595835     0.103107     0.996771  Biso 1.000000     C
    C   1.0     0.595833     0.603119     0.996771  Biso 1.000000     C
    C   1.0     0.485207     0.063133     0.943661  Biso 1.000000     C
    C   1.0     0.485204     0.563145     0.943661  Biso 1.000000     C
    C   1.0     0.985201     0.063133     0.943661  Biso 1.000000     C
    C   1.0     0.985198     0.563145     0.943662  Biso 1.000000     C
    C   1.0     0.061516     0.485158     0.059658  Biso 1.000000     C
    C   1.0     0.061516     0.985169     0.059658  Biso 1.000000     C
    C   1.0     0.561509     0.485159     0.059658  Biso 1.000000     C
    C   1.0     0.561510     0.985169     0.059658  Biso 1.000000     C
    C   1.0     0.046591     0.049535     0.002006  Biso 1.000000     C
    C   1.0     0.046588     0.549547     0.002007  Biso 1.000000     C
    C   1.0     0.546584     0.049535     0.002006  Biso 1.000000     C
    C   1.0     0.546582     0.549547     0.002006  Biso 1.000000     C
    C   1.0     0.317454     0.117777     0.135702  Biso 1.000000     C
    C   1.0     0.317451     0.617789     0.135704  Biso 1.000000     C
    C   1.0     0.817447     0.117777     0.135703  Biso 1.000000     C
    C   1.0     0.817445     0.617789     0.135703  Biso 1.000000     C
    C   1.0     0.381717     0.200108     0.130198  Biso 1.000000     C
    C   1.0     0.381716     0.700119     0.130198  Biso 1.000000     C
    C   1.0     0.881711     0.200108     0.130198  Biso 1.000000     C
    C   1.0     0.881710     0.700119     0.130198  Biso 1.000000     C
    C   1.0     0.126384     0.463479     0.125022  Biso 1.000000     C
    C   1.0     0.126384     0.963490     0.125021  Biso 1.000000     C
    C   1.0     0.626378     0.463480     0.125021  Biso 1.000000     C
    C   1.0     0.626378     0.963490     0.125021  Biso 1.000000     C
    C   1.0     0.198991     0.397122     0.496795  Biso 1.000000     C
    C   1.0     0.198991     0.897134     0.496795  Biso 1.000000     C
    C   1.0     0.698985     0.397122     0.496795  Biso 1.000000     C
    C   1.0     0.698984     0.897134     0.496795  Biso 1.000000     C
    C   1.0     0.048479     0.436905     0.443585  Biso 1.000000     C
    C   1.0     0.048479     0.936917     0.443585  Biso 1.000000     C
    C   1.0     0.548473     0.436905     0.443585  Biso 1.000000     C
    C   1.0     0.548473     0.936917     0.443585  Biso 1.000000     C
    C   1.0     0.046544     0.014917     0.559740  Biso 1.000000     C
    C   1.0     0.046543     0.514928     0.559740  Biso 1.000000     C
    C   1.0     0.546539     0.014918     0.559740  Biso 1.000000     C
    C   1.0     0.546537     0.514928     0.559740  Biso 1.000000     C
    C   1.0     0.096135     0.450555     0.501999  Biso 1.000000     C
    C   1.0     0.096135     0.950567     0.501999  Biso 1.000000     C
    C   1.0     0.596129     0.450555     0.502000  Biso 1.000000     C
    C   1.0     0.596129     0.950567     0.502000  Biso 1.000000     C
    C   1.0     0.435363     0.382556     0.635496  Biso 1.000000     C
    C   1.0     0.435364     0.882568     0.635494  Biso 1.000000     C
    C   1.0     0.935358     0.382556     0.635495  Biso 1.000000     C
    C   1.0     0.935358     0.882568     0.635495  Biso 1.000000     C
    C   1.0     0.081850     0.299865     0.630139  Biso 1.000000     C
    C   1.0     0.081849     0.799876     0.630139  Biso 1.000000     C
    C   1.0     0.581843     0.299866     0.630139  Biso 1.000000     C
    C   1.0     0.581843     0.799876     0.630139  Biso 1.000000     C
    C   1.0     0.089651     0.036679     0.625157  Biso 1.000000     C
    C   1.0     0.089650     0.536690     0.625157  Biso 1.000000     C
    C   1.0     0.589645     0.036680     0.625157  Biso 1.000000     C
    C   1.0     0.589643     0.536690     0.625157  Biso 1.000000     C
    C   1.0     0.404143     0.396909     0.003203  Biso 1.000000     C
    C   1.0     0.404145     0.896919     0.003202  Biso 1.000000     C
    C   1.0     0.904138     0.396909     0.003202  Biso 1.000000     C
    C   1.0     0.904138     0.896919     0.003203  Biso 1.000000     C
    C   1.0     0.014779     0.436883     0.056313  Biso 1.000000     C
    C   1.0     0.014779     0.936894     0.056313  Biso 1.000000     C
    C   1.0     0.514772     0.436884     0.056313  Biso 1.000000     C
    C   1.0     0.514773     0.936893     0.056313  Biso 1.000000     C
    C   1.0     0.438470     0.014857     0.940316  Biso 1.000000     C
    C   1.0     0.438467     0.514869     0.940316  Biso 1.000000     C
    C   1.0     0.938464     0.014857     0.940316  Biso 1.000000     C
    C   1.0     0.938462     0.514869     0.940316  Biso 1.000000     C
    C   1.0     0.453394     0.450481     0.997968  Biso 1.000000     C
    C   1.0     0.453395     0.950491     0.997967  Biso 1.000000     C
    C   1.0     0.953389     0.450480     0.997968  Biso 1.000000     C
    C   1.0     0.953389     0.950491     0.997968  Biso 1.000000     C
    C   1.0     0.182531     0.382240     0.864271  Biso 1.000000     C
    C   1.0     0.182532     0.882250     0.864270  Biso 1.000000     C
    C   1.0     0.682525     0.382240     0.864271  Biso 1.000000     C
    C   1.0     0.682526     0.882250     0.864270  Biso 1.000000     C
    C   1.0     0.118269     0.299908     0.869775  Biso 1.000000     C
    C   1.0     0.118267     0.799920     0.869776  Biso 1.000000     C
    C   1.0     0.618261     0.299908     0.869776  Biso 1.000000     C
    C   1.0     0.618262     0.799919     0.869775  Biso 1.000000     C
    C   1.0     0.373602     0.036537     0.874952  Biso 1.000000     C
    C   1.0     0.373599     0.536548     0.874953  Biso 1.000000     C
    C   1.0     0.873595     0.036536     0.874953  Biso 1.000000     C
    C   1.0     0.873594     0.536548     0.874953  Biso 1.000000     C
    N   1.0     0.044346     0.172313     0.425120  Biso 1.000000     N
    N   1.0     0.044345     0.672324     0.425121  Biso 1.000000     N
    N   1.0     0.544340     0.172314     0.425120  Biso 1.000000     N
    N   1.0     0.544339     0.672324     0.425121  Biso 1.000000     N
    N   1.0     0.148418     0.054659     0.342628  Biso 1.000000     N
    N   1.0     0.148416     0.554669     0.342629  Biso 1.000000     N
    N   1.0     0.648412     0.054658     0.342629  Biso 1.000000     N
    N   1.0     0.648410     0.554668     0.342630  Biso 1.000000     N
    N   1.0     0.486460     0.133621     0.328503  Biso 1.000000     N
    N   1.0     0.486458     0.633632     0.328504  Biso 1.000000     N
    N   1.0     0.986454     0.133621     0.328503  Biso 1.000000     N
    N   1.0     0.986451     0.633632     0.328504  Biso 1.000000     N
    N   1.0     0.449464     0.224972     0.427837  Biso 1.000000     N
    N   1.0     0.449462     0.724983     0.427838  Biso 1.000000     N
    N   1.0     0.949457     0.224972     0.427838  Biso 1.000000     N
    N   1.0     0.949456     0.724983     0.427838  Biso 1.000000     N
    N   1.0     0.283045     0.172560     0.075025  Biso 1.000000     N
    N   1.0     0.283041     0.672572     0.075026  Biso 1.000000     N
    N   1.0     0.783038     0.172560     0.075026  Biso 1.000000     N
    N   1.0     0.783036     0.672571     0.075026  Biso 1.000000     N
    N   1.0     0.295952     0.055329     0.157786  Biso 1.000000     N
    N   1.0     0.295948     0.555342     0.157788  Biso 1.000000     N
    N   1.0     0.795945     0.055329     0.157787  Biso 1.000000     N
    N   1.0     0.795941     0.555342     0.157788  Biso 1.000000     N
    N   1.0     0.379661     0.133741     0.171589  Biso 1.000000     N
    N   1.0     0.379658     0.633752     0.171590  Biso 1.000000     N
    N   1.0     0.879655     0.133740     0.171589  Biso 1.000000     N
    N   1.0     0.879652     0.633752     0.171590  Biso 1.000000     N
    N   1.0     0.325551     0.225000     0.072236  Biso 1.000000     N
    N   1.0     0.325548     0.725012     0.072237  Biso 1.000000     N
    N   1.0     0.825544     0.225000     0.072237  Biso 1.000000     N
    N   1.0     0.825543     0.725011     0.072237  Biso 1.000000     N
    N   1.0     0.455639     0.327703     0.574853  Biso 1.000000     N
    N   1.0     0.455639     0.827714     0.574853  Biso 1.000000     N
    N   1.0     0.955633     0.327702     0.574853  Biso 1.000000     N
    N   1.0     0.955633     0.827714     0.574853  Biso 1.000000     N
    N   1.0     0.351566     0.445356     0.657347  Biso 1.000000     N
    N   1.0     0.351568     0.945370     0.657343  Biso 1.000000     N
    N   1.0     0.851561     0.445356     0.657347  Biso 1.000000     N
    N   1.0     0.851561     0.945369     0.657344  Biso 1.000000     N
    N   1.0     0.013526     0.366395     0.671471  Biso 1.000000     N
    N   1.0     0.013526     0.866406     0.671470  Biso 1.000000     N
    N   1.0     0.513519     0.366395     0.671471  Biso 1.000000     N
    N   1.0     0.513520     0.866406     0.671470  Biso 1.000000     N
    N   1.0     0.050522     0.275044     0.572136  Biso 1.000000     N
    N   1.0     0.050521     0.775055     0.572136  Biso 1.000000     N
    N   1.0     0.550516     0.275044     0.572136  Biso 1.000000     N
    N   1.0     0.550515     0.775055     0.572136  Biso 1.000000     N
    N   1.0     0.216941     0.327457     0.924948  Biso 1.000000     N
    N   1.0     0.216941     0.827467     0.924947  Biso 1.000000     N
    N   1.0     0.716935     0.327456     0.924948  Biso 1.000000     N
    N   1.0     0.716935     0.827467     0.924947  Biso 1.000000     N
    N   1.0     0.204032     0.444689     0.842188  Biso 1.000000     N
    N   1.0     0.204036     0.944696     0.842185  Biso 1.000000     N
    N   1.0     0.704026     0.444688     0.842188  Biso 1.000000     N
    N   1.0     0.704029     0.944698     0.842186  Biso 1.000000     N
    N   1.0     0.120325     0.366276     0.828384  Biso 1.000000     N
    N   1.0     0.120325     0.866287     0.828384  Biso 1.000000     N
    N   1.0     0.620318     0.366276     0.828384  Biso 1.000000     N
    N   1.0     0.620319     0.866287     0.828383  Biso 1.000000     N
    N   1.0     0.174436     0.275015     0.927736  Biso 1.000000     N
    N   1.0     0.174434     0.775027     0.927737  Biso 1.000000     N
    N   1.0     0.674429     0.275016     0.927737  Biso 1.000000     N
    N   1.0     0.674429     0.775027     0.927736  Biso 1.000000     N
    O   1.0     0.254346     0.090594     0.451510  Biso 1.000000     O
    O   1.0     0.254345     0.590605     0.451510  Biso 1.000000     O
    O   1.0     0.754340     0.090594     0.451510  Biso 1.000000     O
    O   1.0     0.754339     0.590605     0.451510  Biso 1.000000     O
    O   1.0     0.261098     0.156857     0.558778  Biso 1.000000     O
    O   1.0     0.261096     0.656866     0.558778  Biso 1.000000     O
    O   1.0     0.761092     0.156856     0.558778  Biso 1.000000     O
    O   1.0     0.761089     0.656865     0.558779  Biso 1.000000     O
    O   1.0     0.381471     0.409321     0.389592  Biso 1.000000     O
    O   1.0     0.381471     0.909333     0.389592  Biso 1.000000     O
    O   1.0     0.881465     0.409321     0.389592  Biso 1.000000     O
    O   1.0     0.881465     0.909332     0.389592  Biso 1.000000     O
    O   1.0     0.409096     0.496161     0.302264  Biso 1.000000     O
    O   1.0     0.409095     0.996173     0.302265  Biso 1.000000     O
    O   1.0     0.909090     0.496161     0.302264  Biso 1.000000     O
    O   1.0     0.909090     0.996173     0.302264  Biso 1.000000     O
    O   1.0     0.154806     0.090883     0.048425  Biso 1.000000     O
    O   1.0     0.154805     0.590894     0.048426  Biso 1.000000     O
    O   1.0     0.654800     0.090883     0.048425  Biso 1.000000     O
    O   1.0     0.654798     0.590895     0.048425  Biso 1.000000     O
    O   1.0     0.081645     0.157053     0.941231  Biso 1.000000     O
    O   1.0     0.081640     0.657067     0.941234  Biso 1.000000     O
    O   1.0     0.581638     0.157054     0.941232  Biso 1.000000     O
    O   1.0     0.581636     0.657066     0.941231  Biso 1.000000     O
    O   1.0     0.209330     0.409554     0.110171  Biso 1.000000     O
    O   1.0     0.209331     0.909566     0.110170  Biso 1.000000     O
    O   1.0     0.709324     0.409555     0.110170  Biso 1.000000     O
    O   1.0     0.709325     0.909566     0.110170  Biso 1.000000     O
    O   1.0     0.094698     0.496351     0.197592  Biso 1.000000     O
    O   1.0     0.094699     0.996362     0.197592  Biso 1.000000     O
    O   1.0     0.594692     0.496352     0.197592  Biso 1.000000     O
    O   1.0     0.594692     0.996362     0.197592  Biso 1.000000     O
    O   1.0     0.245639     0.409422     0.548462  Biso 1.000000     O
    O   1.0     0.245639     0.909434     0.548463  Biso 1.000000     O
    O   1.0     0.745633     0.409422     0.548463  Biso 1.000000     O
    O   1.0     0.745633     0.909434     0.548463  Biso 1.000000     O
    O   1.0     0.238888     0.343159     0.441196  Biso 1.000000     O
    O   1.0     0.238888     0.843172     0.441195  Biso 1.000000     O
    O   1.0     0.738881     0.343159     0.441196  Biso 1.000000     O
    O   1.0     0.738881     0.843171     0.441196  Biso 1.000000     O
    O   1.0     0.118514     0.090695     0.610381  Biso 1.000000     O
    O   1.0     0.118513     0.590705     0.610381  Biso 1.000000     O
    O   1.0     0.618508     0.090695     0.610381  Biso 1.000000     O
    O   1.0     0.618506     0.590706     0.610381  Biso 1.000000     O
    O   1.0     0.090890     0.003855     0.697709  Biso 1.000000     O
    O   1.0     0.090889     0.503865     0.697708  Biso 1.000000     O
    O   1.0     0.590884     0.003855     0.697709  Biso 1.000000     O
    O   1.0     0.590882     0.503865     0.697709  Biso 1.000000     O
    O   1.0     0.345179     0.409133     0.951549  Biso 1.000000     O
    O   1.0     0.345179     0.909144     0.951548  Biso 1.000000     O
    O   1.0     0.845173     0.409133     0.951548  Biso 1.000000     O
    O   1.0     0.845174     0.909143     0.951548  Biso 1.000000     O
    O   1.0     0.418339     0.342964     0.058744  Biso 1.000000     O
    O   1.0     0.418341     0.842973     0.058742  Biso 1.000000     O
    O   1.0     0.918333     0.342963     0.058742  Biso 1.000000     O
    O   1.0     0.918334     0.842974     0.058743  Biso 1.000000     O
    O   1.0     0.290655     0.090460     0.889804  Biso 1.000000     O
    O   1.0     0.290651     0.590471     0.889805  Biso 1.000000     O
    O   1.0     0.790649     0.090460     0.889805  Biso 1.000000     O
    O   1.0     0.790647     0.590472     0.889804  Biso 1.000000     O
    O   1.0     0.405288     0.003665     0.802381  Biso 1.000000     O
    O   1.0     0.405285     0.503677     0.802382  Biso 1.000000     O
    O   1.0     0.905281     0.003665     0.802382  Biso 1.000000     O
    O   1.0     0.905280     0.503677     0.802382  Biso 1.000000     O
   Zn   1.0     0.122438     0.166238     0.513605  Biso 1.000000    Zn
   Zn   1.0     0.122437     0.666249     0.513605  Biso 1.000000    Zn
   Zn   1.0     0.622432     0.166238     0.513605  Biso 1.000000    Zn
   Zn   1.0     0.622431     0.666249     0.513605  Biso 1.000000    Zn
   Zn   1.0     0.211118     0.166432     0.986408  Biso 1.000000    Zn
   Zn   1.0     0.211115     0.666444     0.986409  Biso 1.000000    Zn
   Zn   1.0     0.711111     0.166433     0.986408  Biso 1.000000    Zn
   Zn   1.0     0.711110     0.666444     0.986408  Biso 1.000000    Zn
   Zn   1.0     0.377547     0.333779     0.486368  Biso 1.000000    Zn
   Zn   1.0     0.377547     0.833790     0.486368  Biso 1.000000    Zn
   Zn   1.0     0.877541     0.333778     0.486368  Biso 1.000000    Zn
   Zn   1.0     0.877541     0.833790     0.486368  Biso 1.000000    Zn
   Zn   1.0     0.288868     0.333584     0.013565  Biso 1.000000    Zn
   Zn   1.0     0.288868     0.833594     0.013565  Biso 1.000000    Zn
   Zn   1.0     0.788862     0.333584     0.013565  Biso 1.000000    Zn
   Zn   1.0     0.788862     0.833594     0.013565  Biso 1.000000    Zn
   Zn   1.0     0.466478     0.066841     0.249982  Biso 1.000000    Zn
   Zn   1.0     0.466476     0.566852     0.249982  Biso 1.000000    Zn
   Zn   1.0     0.966472     0.066841     0.249982  Biso 1.000000    Zn
   Zn   1.0     0.966470     0.566852     0.249982  Biso 1.000000    Zn
   Zn   1.0     0.033508     0.433175     0.749991  Biso 1.000000    Zn
   Zn   1.0     0.033507     0.933186     0.749991  Biso 1.000000    Zn
   Zn   1.0     0.533501     0.433175     0.749991  Biso 1.000000    Zn
   Zn   1.0     0.533502     0.933186     0.749991  Biso 1.000000    Zn
