#======================================================================

# CRYSTAL DATA

#----------------------------------------------------------------------

data_VESTA_phase_1


_pd_phase_name                         MOF
_cell_length_a                         12.73600
_cell_length_b                         12.75200
_cell_length_c                         25.65700
_cell_angle_alpha                      90.01000
_cell_angle_beta                       90.04100
_cell_angle_gamma                      89.95600
_symmetry_space_group_name_H-M         "P 1"
_symmetry_Int_Tables_number            1

loop_
_symmetry_equiv_pos_as_xyz
   "x, y, z"

loop_
   _atom_site_label
   _atom_site_occupancy
   _atom_site_fract_x
   _atom_site_fract_y
   _atom_site_fract_z
   _atom_site_adp_type
   _atom_site_B_iso_or_equiv
   _atom_site_type_symbol
    H   1.0     0.057234     0.927656     0.767185  Biso 1.000000     H
    H   1.0     0.314765     0.930760     0.658883  Biso 1.000000     H
    H   1.0     0.720477     0.058306     0.465458  Biso 1.000000     H
    H   1.0     0.872691     0.954430     0.648578  Biso 1.000000     H
    H   1.0     0.734367     0.980154     0.649043  Biso 1.000000     H
    H   1.0     0.441604     0.571677     0.768069  Biso 1.000000     H
    H   1.0     0.186248     0.567844     0.658371  Biso 1.000000     H
    H   1.0     0.779419     0.441525     0.465764  Biso 1.000000     H
    H   1.0     0.627113     0.546919     0.648639  Biso 1.000000     H
    H   1.0     0.765367     0.520567     0.649069  Biso 1.000000     H
    H   1.0     0.571010     0.057490     0.768074  Biso 1.000000     H
    H   1.0     0.567561     0.313883     0.659250  Biso 1.000000     H
    H   1.0     0.445774     0.720466     0.465627  Biso 1.000000     H
    H   1.0     0.545494     0.874083     0.649002  Biso 1.000000     H
    H   1.0     0.520077     0.735911     0.649450  Biso 1.000000     H
    H   1.0     0.929095     0.441402     0.766840  Biso 1.000000     H
    H   1.0     0.932699     0.184907     0.657994  Biso 1.000000     H
    H   1.0     0.054891     0.779345     0.465556  Biso 1.000000     H
    H   1.0     0.954262     0.626944     0.648886  Biso 1.000000     H
    H   1.0     0.979060     0.765277     0.649288  Biso 1.000000     H
    H   1.0     0.441661     0.927395     0.733069  Biso 1.000000     H
    H   1.0     0.184131     0.931154     0.841366  Biso 1.000000     H
    H   1.0     0.779390     0.058275     0.034143  Biso 1.000000     H
    H   1.0     0.627168     0.954512     0.851049  Biso 1.000000     H
    H   1.0     0.765434     0.980300     0.850535  Biso 1.000000     H
    H   1.0     0.057853     0.571577     0.731880  Biso 1.000000     H
    H   1.0     0.313208     0.568151     0.841580  Biso 1.000000     H
    H   1.0     0.721139     0.441769     0.034551  Biso 1.000000     H
    H   1.0     0.872670     0.546326     0.851439  Biso 1.000000     H
    H   1.0     0.734412     0.520109     0.851125  Biso 1.000000     H
    H   1.0     0.929057     0.057614     0.731925  Biso 1.000000     H
    H   1.0     0.932879     0.314067     0.840766  Biso 1.000000     H
    H   1.0     0.053681     0.720233     0.034366  Biso 1.000000     H
    H   1.0     0.954178     0.874104     0.850991  Biso 1.000000     H
    H   1.0     0.979056     0.735769     0.850558  Biso 1.000000     H
    H   1.0     0.571130     0.441259     0.733189  Biso 1.000000     H
    H   1.0     0.567299     0.184838     0.842012  Biso 1.000000     H
    H   1.0     0.444204     0.779190     0.034420  Biso 1.000000     H
    H   1.0     0.545912     0.627051     0.851098  Biso 1.000000     H
    H   1.0     0.520537     0.765317     0.850756  Biso 1.000000     H
    H   1.0     0.942623     0.072274     0.232536  Biso 1.000000     H
    H   1.0     0.685358     0.069228     0.340972  Biso 1.000000     H
    H   1.0     0.279091     0.941679     0.534493  Biso 1.000000     H
    H   1.0     0.127026     0.045616     0.351325  Biso 1.000000     H
    H   1.0     0.265341     0.019843     0.350903  Biso 1.000000     H
    H   1.0     0.558347     0.428312     0.231876  Biso 1.000000     H
    H   1.0     0.813691     0.432095     0.341582  Biso 1.000000     H
    H   1.0     0.220571     0.558438     0.534201  Biso 1.000000     H
    H   1.0     0.372852     0.453024     0.351324  Biso 1.000000     H
    H   1.0     0.234599     0.479391     0.350898  Biso 1.000000     H
    H   1.0     0.428920     0.942488     0.231912  Biso 1.000000     H
    H   1.0     0.432396     0.686089     0.340732  Biso 1.000000     H
    H   1.0     0.554102     0.279522     0.534330  Biso 1.000000     H
    H   1.0     0.454387     0.125868     0.350961  Biso 1.000000     H
    H   1.0     0.479886     0.264028     0.350501  Biso 1.000000     H
    H   1.0     0.070842     0.558538     0.233139  Biso 1.000000     H
    H   1.0     0.067277     0.815049     0.341978  Biso 1.000000     H
    H   1.0     0.945007     0.220620     0.534418  Biso 1.000000     H
    H   1.0     0.045679     0.372950     0.351082  Biso 1.000000     H
    H   1.0     0.020916     0.234639     0.350659  Biso 1.000000     H
    H   1.0     0.558260     0.072572     0.266843  Biso 1.000000     H
    H   1.0     0.815544     0.068757     0.158392  Biso 1.000000     H
    H   1.0     0.220525     0.941656     0.965804  Biso 1.000000     H
    H   1.0     0.372793     0.045451     0.148885  Biso 1.000000     H
    H   1.0     0.234528     0.019639     0.149407  Biso 1.000000     H
    H   1.0     0.942093     0.428355     0.268078  Biso 1.000000     H
    H   1.0     0.686752     0.431832     0.158371  Biso 1.000000     H
    H   1.0     0.278907     0.558181     0.965422  Biso 1.000000     H
    H   1.0     0.127364     0.453646     0.148535  Biso 1.000000     H
    H   1.0     0.265622     0.479850     0.148848  Biso 1.000000     H
    H   1.0     0.070914     0.942333     0.268043  Biso 1.000000     H
    H   1.0     0.067064     0.685866     0.159210  Biso 1.000000     H
    H   1.0     0.946311     0.279728     0.965613  Biso 1.000000     H
    H   1.0     0.045807     0.125853     0.148990  Biso 1.000000     H
    H   1.0     0.020936     0.264186     0.149422  Biso 1.000000     H
    H   1.0     0.428878     0.558719     0.266791  Biso 1.000000     H
    H   1.0     0.432685     0.815149     0.157973  Biso 1.000000     H
    H   1.0     0.555790     0.220813     0.965538  Biso 1.000000     H
    H   1.0     0.454080     0.372908     0.148868  Biso 1.000000     H
    H   1.0     0.479375     0.234626     0.149194  Biso 1.000000     H
    C   1.0     0.101343     0.928882     0.664196  Biso 1.000000     C
    C   1.0     0.178007     0.929442     0.708418  Biso 1.000000     C
    C   1.0     0.141457     0.928417     0.759999  Biso 1.000000     C
    C   1.0     0.286628     0.929911     0.698930  Biso 1.000000     C
    C   1.0     0.765851     0.038075     0.499837  Biso 1.000000     C
    C   1.0     0.809166     0.998675     0.578712  Biso 1.000000     C
    C   1.0     0.399449     0.570918     0.664899  Biso 1.000000     C
    C   1.0     0.321953     0.569716     0.708682  Biso 1.000000     C
    C   1.0     0.357511     0.570802     0.760455  Biso 1.000000     C
    C   1.0     0.213544     0.568946     0.698581  Biso 1.000000     C
    C   1.0     0.734014     0.462177     0.500041  Biso 1.000000     C
    C   1.0     0.690690     0.502562     0.578733  Biso 1.000000     C
    C   1.0     0.570463     0.100931     0.665071  Biso 1.000000     C
    C   1.0     0.569260     0.177765     0.709108  Biso 1.000000     C
    C   1.0     0.570167     0.141565     0.760743  Biso 1.000000     C
    C   1.0     0.568535     0.286160     0.699371  Biso 1.000000     C
    C   1.0     0.465078     0.766151     0.500011  Biso 1.000000     C
    C   1.0     0.502284     0.810281     0.579007  Biso 1.000000     C
    C   1.0     0.930512     0.397541     0.663682  Biso 1.000000     C
    C   1.0     0.931113     0.321056     0.707847  Biso 1.000000     C
    C   1.0     0.929994     0.357321     0.759482  Biso 1.000000     C
    C   1.0     0.931701     0.212655     0.698111  Biso 1.000000     C
    C   1.0     0.035361     0.734007     0.499993  Biso 1.000000     C
    C   1.0     0.997096     0.690607     0.578929  Biso 1.000000     C
    C   1.0     0.397342     0.929034     0.836140  Biso 1.000000     C
    C   1.0     0.320863     0.929470     0.791840  Biso 1.000000     C
    C   1.0     0.357431     0.928277     0.740257  Biso 1.000000     C
    C   1.0     0.212245     0.930102     0.801319  Biso 1.000000     C
    C   1.0     0.734066     0.037994     0.999742  Biso 1.000000     C
    C   1.0     0.690702     0.998574     0.920900  Biso 1.000000     C
    C   1.0     0.100146     0.571117     0.835113  Biso 1.000000     C
    C   1.0     0.177508     0.569866     0.791273  Biso 1.000000     C
    C   1.0     0.141945     0.570744     0.739501  Biso 1.000000     C
    C   1.0     0.285922     0.569126     0.801369  Biso 1.000000     C
    C   1.0     0.766423     0.462150     0.000000  Biso 1.000000     C
    C   1.0     0.809428     0.501974     0.921382  Biso 1.000000     C
    C   1.0     0.930412     0.101094     0.834931  Biso 1.000000     C
    C   1.0     0.931203     0.177928     0.790899  Biso 1.000000     C
    C   1.0     0.929996     0.141689     0.739264  Biso 1.000000     C
    C   1.0     0.931822     0.286321     0.800645  Biso 1.000000     C
    C   1.0     0.034418     0.765947     0.999971  Biso 1.000000     C
    C   1.0     0.997034     0.810140     0.920997  Biso 1.000000     C
    C   1.0     0.570225     0.397443     0.836341  Biso 1.000000     C
    C   1.0     0.569131     0.320952     0.792169  Biso 1.000000     C
    C   1.0     0.570240     0.357179     0.740533  Biso 1.000000     C
    C   1.0     0.568387     0.212559     0.801896  Biso 1.000000     C
    C   1.0     0.464037     0.733895     0.999977  Biso 1.000000     C
    C   1.0     0.502857     0.690620     0.921088  Biso 1.000000     C
    C   1.0     0.898897     0.071144     0.335378  Biso 1.000000     C
    C   1.0     0.821948     0.070515     0.291311  Biso 1.000000     C
    C   1.0     0.858406     0.071511     0.239724  Biso 1.000000     C
    C   1.0     0.713374     0.070055     0.300903  Biso 1.000000     C
    C   1.0     0.233759     0.961903     0.500099  Biso 1.000000     C
    C   1.0     0.190505     0.001319     0.421215  Biso 1.000000     C
    C   1.0     0.600504     0.429053     0.335058  Biso 1.000000     C
    C   1.0     0.677990     0.430246     0.291270  Biso 1.000000     C
    C   1.0     0.642438     0.429172     0.239495  Biso 1.000000     C
    C   1.0     0.786399     0.431003     0.301372  Biso 1.000000     C
    C   1.0     0.265971     0.537778     0.499924  Biso 1.000000     C
    C   1.0     0.309286     0.497383     0.421231  Biso 1.000000     C
    C   1.0     0.429443     0.899045     0.334917  Biso 1.000000     C
    C   1.0     0.430688     0.822212     0.290878  Biso 1.000000     C
    C   1.0     0.429786     0.858414     0.239243  Biso 1.000000     C
    C   1.0     0.431431     0.713816     0.300612  Biso 1.000000     C
    C   1.0     0.534768     0.233833     0.499952  Biso 1.000000     C
    C   1.0     0.497590     0.189682     0.420955  Biso 1.000000     C
    C   1.0     0.069441     0.602412     0.336297  Biso 1.000000     C
    C   1.0     0.068844     0.678891     0.292130  Biso 1.000000     C
    C   1.0     0.069955     0.642620     0.240495  Biso 1.000000     C
    C   1.0     0.068268     0.787295     0.301862  Biso 1.000000     C
    C   1.0     0.964542     0.265943     0.499977  Biso 1.000000     C
    C   1.0     0.002792     0.309316     0.421035  Biso 1.000000     C
    C   1.0     0.602480     0.070903     0.163756  Biso 1.000000     C
    C   1.0     0.678965     0.070465     0.208023  Biso 1.000000     C
    C   1.0     0.642477     0.071678     0.259619  Biso 1.000000     C
    C   1.0     0.787543     0.069819     0.198456  Biso 1.000000     C
    C   1.0     0.265860     0.961946     0.000200  Biso 1.000000     C
    C   1.0     0.309248     0.001376     0.079038  Biso 1.000000     C
    C   1.0     0.899825     0.428847     0.164848  Biso 1.000000     C
    C   1.0     0.822447     0.430095     0.208682  Biso 1.000000     C
    C   1.0     0.858003     0.429203     0.260454  Biso 1.000000     C
    C   1.0     0.714034     0.430847     0.198582  Biso 1.000000     C
    C   1.0     0.233617     0.537804    -0.000224  Biso 1.000000     C
    C   1.0     0.190608     0.497986     0.078590  Biso 1.000000     C
    C   1.0     0.069560     0.898842     0.165042  Biso 1.000000     C
    C   1.0     0.068763     0.822009     0.209074  Biso 1.000000     C
    C   1.0     0.069977     0.858258     0.260707  Biso 1.000000     C
    C   1.0     0.068130     0.713615     0.199330  Biso 1.000000     C
    C   1.0     0.965568     0.234012     0.000009  Biso 1.000000     C
    C   1.0     0.002963     0.189818     0.078981  Biso 1.000000     C
    C   1.0     0.429797     0.602539     0.163640  Biso 1.000000     C
    C   1.0     0.430871     0.679029     0.207813  Biso 1.000000     C
    C   1.0     0.429756     0.642799     0.259448  Biso 1.000000     C
    C   1.0     0.431595     0.787423     0.198088  Biso 1.000000     C
    C   1.0     0.535954     0.266099    -0.000016  Biso 1.000000     C
    C   1.0     0.497113     0.309349     0.078873  Biso 1.000000     C
    N   1.0     0.898668     0.000000     0.550168  Biso 1.000000     N
    N   1.0     0.868855     0.025198     0.499070  Biso 1.000000     N
    N   1.0     0.724319     0.023008     0.547977  Biso 1.000000     N
    N   1.0     0.804808     0.975828     0.629682  Biso 1.000000     N
    N   1.0     0.601151     0.499988     0.550135  Biso 1.000000     N
    N   1.0     0.630981     0.475002     0.499130  Biso 1.000000     N
    N   1.0     0.775618     0.477906     0.548142  Biso 1.000000     N
    N   1.0     0.695053     0.526085     0.629656  Biso 1.000000     N
    N   1.0     0.500390     0.899468     0.550238  Biso 1.000000     N
    N   1.0     0.477410     0.869070     0.499066  Biso 1.000000     N
    N   1.0     0.479221     0.725105     0.548320  Biso 1.000000     N
    N   1.0     0.523119     0.806467     0.630223  Biso 1.000000     N
    N   1.0     0.000000     0.601124     0.550406  Biso 1.000000     N
    N   1.0     0.023570     0.631004     0.499270  Biso 1.000000     N
    N   1.0     0.020215     0.775537     0.548140  Biso 1.000000     N
    N   1.0     0.974854     0.694874     0.629980  Biso 1.000000     N
    N   1.0     0.601196     0.000000     0.949486  Biso 1.000000     N
    N   1.0     0.631095     0.024875     0.000000  Biso 1.000000     N
    N   1.0     0.775617     0.023098     0.951577  Biso 1.000000     N
    N   1.0     0.695037     0.975929     0.869890  Biso 1.000000     N
    N   1.0     0.899032     0.499302     0.949899  Biso 1.000000     N
    N   1.0     0.869442     0.474757     0.000000  Biso 1.000000     N
    N   1.0     0.724697     0.477697     0.952105  Biso 1.000000     N
    N   1.0     0.804890     0.525184     0.870445  Biso 1.000000     N
    N   1.0     0.999507     0.899367     0.949726  Biso 1.000000     N
    N   1.0     0.022536     0.868933     0.000000  Biso 1.000000     N
    N   1.0     0.019860     0.724922     0.951693  Biso 1.000000     N
    N   1.0     0.975671     0.806258     0.869843  Biso 1.000000     N
    N   1.0     0.500208     0.601117     0.949584  Biso 1.000000     N
    N   1.0     0.476247     0.630916     0.000000  Biso 1.000000     N
    N   1.0     0.479228     0.775498     0.951859  Biso 1.000000     N
    N   1.0     0.525391     0.694966     0.870062  Biso 1.000000     N
    N   1.0     0.100982    -0.000979     0.449745  Biso 1.000000     N
    N   1.0     0.130755     0.974781     0.500844  Biso 1.000000     N
    N   1.0     0.275336     0.976973     0.451964  Biso 1.000000     N
    N   1.0     0.194888     0.024185     0.370247  Biso 1.000000     N
    N   1.0     0.398828     0.499961     0.449827  Biso 1.000000     N
    N   1.0     0.369003     0.524950     0.500832  Biso 1.000000     N
    N   1.0     0.224362     0.522046     0.451824  Biso 1.000000     N
    N   1.0     0.304912     0.473843     0.370311  Biso 1.000000     N
    N   1.0     0.499358     0.100514     0.449741  Biso 1.000000     N
    N   1.0     0.522324     0.130928     0.500913  Biso 1.000000     N
    N   1.0     0.520715     0.274858     0.451632  Biso 1.000000     N
    N   1.0     0.476833     0.193475     0.369730  Biso 1.000000     N
    N   1.0    -0.000032     0.398801     0.449561  Biso 1.000000     N
    N   1.0     0.976418     0.368935     0.500700  Biso 1.000000     N
    N   1.0     0.979612     0.224405     0.451826  Biso 1.000000     N
    N   1.0     0.024984     0.305038     0.369978  Biso 1.000000     N
    N   1.0     0.398743    -0.000584     0.050442  Biso 1.000000     N
    N   1.0     0.368828     0.975083    -0.000634  Biso 1.000000     N
    N   1.0     0.224327     0.976838     0.048369  Biso 1.000000     N
    N   1.0     0.304920     0.024017     0.130048  Biso 1.000000     N
    N   1.0     0.101006     0.500656     0.050072  Biso 1.000000     N
    N   1.0     0.130598     0.525199    -0.001003  Biso 1.000000     N
    N   1.0     0.275339     0.522260     0.047867  Biso 1.000000     N
    N   1.0     0.195145     0.474777     0.129528  Biso 1.000000     N
    N   1.0     0.000454     0.100586     0.050256  Biso 1.000000     N
    N   1.0     0.977419     0.131022    -0.000895  Biso 1.000000     N
    N   1.0     0.980153     0.275039     0.048284  Biso 1.000000     N
    N   1.0     0.024354     0.193704     0.130132  Biso 1.000000     N
    N   1.0     0.499810     0.398866     0.050388  Biso 1.000000     N
    N   1.0     0.523781     0.369082    -0.000728  Biso 1.000000     N
    N   1.0     0.520723     0.224478     0.048093  Biso 1.000000     N
    N   1.0     0.474547     0.304986     0.129895  Biso 1.000000     N
    O   1.0     0.138507     0.951277     0.618572  Biso 1.000000     O
    O   1.0     0.005925     0.905944     0.671936  Biso 1.000000     O
    O   1.0     0.363218     0.547410     0.619179  Biso 1.000000     O
    O   1.0     0.494221     0.595522     0.673179  Biso 1.000000     O
    O   1.0     0.547029     0.137742     0.619470  Biso 1.000000     O
    O   1.0     0.595057     0.006093     0.673042  Biso 1.000000     O
    O   1.0     0.954015     0.360356     0.618184  Biso 1.000000     O
    O   1.0     0.906402     0.492671     0.671258  Biso 1.000000     O
    O   1.0     0.359844     0.951268     0.881731  Biso 1.000000     O
    O   1.0     0.492892     0.906259     0.828558  Biso 1.000000     O
    O   1.0     0.136762     0.548174     0.880835  Biso 1.000000     O
    O   1.0     0.005145     0.595228     0.826891  Biso 1.000000     O
    O   1.0     0.954138     0.137854     0.880511  Biso 1.000000     O
    O   1.0     0.905988     0.006262     0.826963  Biso 1.000000     O
    O   1.0     0.547042     0.360364     0.881879  Biso 1.000000     O
    O   1.0     0.594530     0.492474     0.828702  Biso 1.000000     O
    O   1.0     0.861933     0.048842     0.381063  Biso 1.000000     O
    O   1.0     0.994210     0.094022     0.327342  Biso 1.000000     O
    O   1.0     0.636745     0.452578     0.380773  Biso 1.000000     O
    O   1.0     0.505732     0.404436     0.326789  Biso 1.000000     O
    O   1.0     0.452870     0.862243     0.380522  Biso 1.000000     O
    O   1.0     0.404824     0.993874     0.326944  Biso 1.000000     O
    O   1.0     0.045916     0.639601     0.381792  Biso 1.000000     O
    O   1.0     0.093567     0.507282     0.328729  Biso 1.000000     O
    O   1.0     0.640014     0.048687     0.118170  Biso 1.000000     O
    O   1.0     0.506933     0.093671     0.171347  Biso 1.000000     O
    O   1.0     0.863224     0.451778     0.119121  Biso 1.000000     O
    O   1.0     0.994826     0.404753     0.173079  Biso 1.000000     O
    O   1.0     0.045806     0.862092     0.119463  Biso 1.000000     O
    O   1.0     0.094014     0.993665     0.173006  Biso 1.000000     O
    O   1.0     0.452955     0.639623     0.118099  Biso 1.000000     O
    O   1.0     0.405526     0.507500     0.171281  Biso 1.000000     O
   Zn   1.0     0.036832     0.932535     0.561869  Biso 1.000000    Zn
   Zn   1.0     0.462406     0.568502     0.561853  Biso 1.000000    Zn
   Zn   1.0     0.567789     0.038908     0.561910  Biso 1.000000    Zn
   Zn   1.0     0.932997     0.462100     0.561796  Biso 1.000000    Zn
   Zn   1.0     0.462252     0.932632     0.938165  Biso 1.000000    Zn
   Zn   1.0     0.036717     0.568526     0.938011  Biso 1.000000    Zn
   Zn   1.0     0.933007     0.039071     0.938004  Biso 1.000000    Zn
   Zn   1.0     0.568129     0.462163     0.938285  Biso 1.000000    Zn
   Zn   1.0     0.962749     0.067426     0.438076  Biso 1.000000    Zn
   Zn   1.0     0.537579     0.431465     0.438108  Biso 1.000000    Zn
   Zn   1.0     0.431917     0.961085     0.438069  Biso 1.000000    Zn
   Zn   1.0     0.066986     0.537852     0.438174  Biso 1.000000    Zn
   Zn   1.0     0.537669     0.067340     0.061755  Biso 1.000000    Zn
   Zn   1.0     0.963319     0.431441     0.061967  Biso 1.000000    Zn
   Zn   1.0     0.066963     0.960885     0.061979  Biso 1.000000    Zn
   Zn   1.0     0.431895     0.537822     0.061694  Biso 1.000000    Zn
