#======================================================================

# CRYSTAL DATA

#----------------------------------------------------------------------

data_VESTA_phase_1


_pd_phase_name                         MOF
_cell_length_a                         12.75400
_cell_length_b                         12.73700
_cell_length_c                         25.66100
_cell_angle_alpha                      90.00400
_cell_angle_beta                       90.02600
_cell_angle_gamma                      89.90000
_symmetry_space_group_name_H-M         "P 1"
_symmetry_Int_Tables_number            1

loop_
_symmetry_equiv_pos_as_xyz
   "x, y, z"

loop_
   _atom_site_label
   _atom_site_occupancy
   _atom_site_fract_x
   _atom_site_fract_y
   _atom_site_fract_z
   _atom_site_adp_type
   _atom_site_B_iso_or_equiv
   _atom_site_type_symbol
    H   1.0     0.279528     0.946556     0.465681  Biso 1.000000     H
    H   1.0     0.057926     0.929907     0.231952  Biso 1.000000     H
    H   1.0     0.185144     0.934227     0.158037  Biso 1.000000     H
    H   1.0     0.263999     0.021658     0.649373  Biso 1.000000     H
    H   1.0     0.125592     0.046069     0.648959  Biso 1.000000     H
    H   1.0     0.220871     0.557135     0.465720  Biso 1.000000     H
    H   1.0     0.441389     0.571371     0.233154  Biso 1.000000     H
    H   1.0     0.314003     0.567686     0.159223  Biso 1.000000     H
    H   1.0     0.234726     0.478597     0.649105  Biso 1.000000     H
    H   1.0     0.372980     0.453060     0.648749  Biso 1.000000     H
    H   1.0     0.559496     0.278608     0.465621  Biso 1.000000     H
    H   1.0     0.572022     0.056940     0.231984  Biso 1.000000     H
    H   1.0     0.567728     0.184409     0.158080  Biso 1.000000     H
    H   1.0     0.479480     0.265275     0.648799  Biso 1.000000     H
    H   1.0     0.452939     0.127123     0.648420  Biso 1.000000     H
    H   1.0     0.941687     0.220875     0.465724  Biso 1.000000     H
    H   1.0     0.927733     0.443515     0.233397  Biso 1.000000     H
    H   1.0     0.931227     0.317492     0.158859  Biso 1.000000     H
    H   1.0     0.020178     0.234225     0.649243  Biso 1.000000     H
    H   1.0     0.045952     0.372461     0.648761  Biso 1.000000     H
    H   1.0     0.220884     0.942962     0.034283  Biso 1.000000     H
    H   1.0     0.441649     0.928569     0.266841  Biso 1.000000     H
    H   1.0     0.314402     0.931419     0.340766  Biso 1.000000     H
    H   1.0     0.234496     0.019702     0.850708  Biso 1.000000     H
    H   1.0     0.372550     0.045816     0.851147  Biso 1.000000     H
    H   1.0     0.278987     0.557227     0.034140  Biso 1.000000     H
    H   1.0     0.057725     0.571864     0.268031  Biso 1.000000     H
    H   1.0     0.185073     0.568172     0.341961  Biso 1.000000     H
    H   1.0     0.264124     0.479069     0.850833  Biso 1.000000     H
    H   1.0     0.126116     0.452621     0.851313  Biso 1.000000     H
    H   1.0     0.942898     0.279101     0.033784  Biso 1.000000     H
    H   1.0     0.927592     0.058674     0.266444  Biso 1.000000     H
    H   1.0     0.930999     0.184663     0.340978  Biso 1.000000     H
    H   1.0     0.020101     0.264182     0.850247  Biso 1.000000     H
    H   1.0     0.045556     0.125760     0.850858  Biso 1.000000     H
    H   1.0     0.559332     0.220882     0.033987  Biso 1.000000     H
    H   1.0     0.574086     0.441095     0.266876  Biso 1.000000     H
    H   1.0     0.571350     0.313664     0.340812  Biso 1.000000     H
    H   1.0     0.478929     0.234476     0.850810  Biso 1.000000     H
    H   1.0     0.452644     0.372756     0.851253  Biso 1.000000     H
    H   1.0     0.720425     0.053381     0.534320  Biso 1.000000     H
    H   1.0     0.942013     0.070195     0.768022  Biso 1.000000     H
    H   1.0     0.814807     0.065871     0.841942  Biso 1.000000     H
    H   1.0     0.735963     0.978395     0.350617  Biso 1.000000     H
    H   1.0     0.874374     0.954000     0.351027  Biso 1.000000     H
    H   1.0     0.779134     0.442826     0.534261  Biso 1.000000     H
    H   1.0     0.558582     0.428732     0.766851  Biso 1.000000     H
    H   1.0     0.685968     0.432412     0.840782  Biso 1.000000     H
    H   1.0     0.765230     0.521398     0.350878  Biso 1.000000     H
    H   1.0     0.626981     0.546955     0.351247  Biso 1.000000     H
    H   1.0     0.440499     0.721432     0.534378  Biso 1.000000     H
    H   1.0     0.427886     0.943046     0.768001  Biso 1.000000     H
    H   1.0     0.432122     0.815577     0.841903  Biso 1.000000     H
    H   1.0     0.520496     0.734750     0.351196  Biso 1.000000     H
    H   1.0     0.547031     0.872903     0.351571  Biso 1.000000     H
    H   1.0     0.058377     0.779115     0.534218  Biso 1.000000     H
    H   1.0     0.072268     0.556496     0.766561  Biso 1.000000     H
    H   1.0     0.068762     0.682511     0.841103  Biso 1.000000     H
    H   1.0     0.979744     0.765806     0.350715  Biso 1.000000     H
    H   1.0     0.953973     0.627570     0.351193  Biso 1.000000     H
    H   1.0     0.779106     0.056853     0.965667  Biso 1.000000     H
    H   1.0     0.558285     0.071395     0.733146  Biso 1.000000     H
    H   1.0     0.685524     0.068554     0.659216  Biso 1.000000     H
    H   1.0     0.765546     0.979972     0.149232  Biso 1.000000     H
    H   1.0     0.627494     0.953886     0.148799  Biso 1.000000     H
    H   1.0     0.721065     0.442374     0.965927  Biso 1.000000     H
    H   1.0     0.942248     0.427970     0.731980  Biso 1.000000     H
    H   1.0     0.814908     0.431664     0.658047  Biso 1.000000     H
    H   1.0     0.735913     0.520745     0.149208  Biso 1.000000     H
    H   1.0     0.873911     0.547261     0.148719  Biso 1.000000     H
    H   1.0     0.057086     0.720852     0.966173  Biso 1.000000     H
    H   1.0     0.072286     0.941343     0.733523  Biso 1.000000     H
    H   1.0     0.068887     0.815356     0.658987  Biso 1.000000     H
    H   1.0     0.979767     0.735728     0.149705  Biso 1.000000     H
    H   1.0     0.954333     0.874152     0.149096  Biso 1.000000     H
    H   1.0     0.440550     0.779096     0.966026  Biso 1.000000     H
    H   1.0     0.425857     0.558896     0.733101  Biso 1.000000     H
    H   1.0     0.428628     0.686333     0.659170  Biso 1.000000     H
    H   1.0     0.521030     0.765470     0.149192  Biso 1.000000     H
    H   1.0     0.547371     0.627200     0.148736  Biso 1.000000     H
    C   1.0     0.189639     0.003227     0.578982  Biso 1.000000     C
    C   1.0     0.233813     0.965813     0.500046  Biso 1.000000     C
    C   1.0     0.178222     0.930681     0.290921  Biso 1.000000     C
    C   1.0     0.141993     0.930446     0.239286  Biso 1.000000     C
    C   1.0     0.212919     0.932572     0.198142  Biso 1.000000     C
    C   1.0     0.101365     0.929434     0.334922  Biso 1.000000     C
    C   1.0     0.309412     0.496854     0.578841  Biso 1.000000     C
    C   1.0     0.266144     0.536720     0.500079  Biso 1.000000     C
    C   1.0     0.321147     0.569691     0.292130  Biso 1.000000     C
    C   1.0     0.357324     0.570604     0.240498  Biso 1.000000     C
    C   1.0     0.286298     0.568876     0.199336  Biso 1.000000     C
    C   1.0     0.397624     0.570671     0.336309  Biso 1.000000     C
    C   1.0     0.497744     0.190375     0.578562  Biso 1.000000     C
    C   1.0     0.538570     0.233362     0.499893  Biso 1.000000     C
    C   1.0     0.571686     0.177304     0.290981  Biso 1.000000     C
    C   1.0     0.571693     0.141116     0.239332  Biso 1.000000     C
    C   1.0     0.569584     0.212194     0.198182  Biso 1.000000     C
    C   1.0     0.572701     0.100260     0.334999  Biso 1.000000     C
    C   1.0     0.001910     0.309117     0.578903  Biso 1.000000     C
    C   1.0     0.962175     0.266059     0.500095  Biso 1.000000     C
    C   1.0     0.929512     0.321942     0.291795  Biso 1.000000     C
    C   1.0     0.928532     0.359200     0.240334  Biso 1.000000     C
    C   1.0     0.930167     0.288934     0.198833  Biso 1.000000     C
    C   1.0     0.929023     0.397899     0.336231  Biso 1.000000     C
    C   1.0     0.309170     0.002440     0.921076  Biso 1.000000     C
    C   1.0     0.266063     0.963167    -0.000094  Biso 1.000000     C
    C   1.0     0.321311     0.931520     0.207859  Biso 1.000000     C
    C   1.0     0.357575     0.929682     0.259488  Biso 1.000000     C
    C   1.0     0.286616     0.930991     0.300652  Biso 1.000000     C
    C   1.0     0.397741     0.930923     0.163682  Biso 1.000000     C
    C   1.0     0.189789     0.496750     0.921195  Biso 1.000000     C
    C   1.0     0.233486     0.536713    -0.000113  Biso 1.000000     C
    C   1.0     0.177924     0.569712     0.209069  Biso 1.000000     C
    C   1.0     0.141780     0.570896     0.260699  Biso 1.000000     C
    C   1.0     0.212774     0.569122     0.301851  Biso 1.000000     C
    C   1.0     0.101001     0.570784     0.165053  Biso 1.000000     C
    C   1.0     0.001842     0.189685     0.920635  Biso 1.000000     C
    C   1.0     0.962937     0.233557    -0.000548  Biso 1.000000     C
    C   1.0     0.929626     0.180233     0.208043  Biso 1.000000     C
    C   1.0     0.928407     0.142985     0.259505  Biso 1.000000     C
    C   1.0     0.930112     0.213236     0.301005  Biso 1.000000     C
    C   1.0     0.929091     0.104228     0.163633  Biso 1.000000     C
    C   1.0     0.497156     0.309288     0.921079  Biso 1.000000     C
    C   1.0     0.538299     0.266141    -0.000294  Biso 1.000000     C
    C   1.0     0.570799     0.320727     0.207887  Biso 1.000000     C
    C   1.0     0.572861     0.356918     0.259531  Biso 1.000000     C
    C   1.0     0.571596     0.285844     0.300702  Biso 1.000000     C
    C   1.0     0.571242     0.397393     0.163724  Biso 1.000000     C
    C   1.0     0.810327     0.996809     0.421008  Biso 1.000000     C
    C   1.0     0.766145     0.034155     0.499952  Biso 1.000000     C
    C   1.0     0.821710     0.069350     0.709059  Biso 1.000000     C
    C   1.0     0.857945     0.069622     0.760692  Biso 1.000000     C
    C   1.0     0.787026     0.067496     0.801839  Biso 1.000000     C
    C   1.0     0.898573     0.070600     0.665060  Biso 1.000000     C
    C   1.0     0.690568     0.503150     0.421150  Biso 1.000000     C
    C   1.0     0.733853     0.463260     0.499907  Biso 1.000000     C
    C   1.0     0.678829     0.430274     0.707874  Biso 1.000000     C
    C   1.0     0.642648     0.429458     0.759507  Biso 1.000000     C
    C   1.0     0.713673     0.431156     0.800670  Biso 1.000000     C
    C   1.0     0.602359     0.429333     0.663691  Biso 1.000000     C
    C   1.0     0.502227     0.809656     0.421431  Biso 1.000000     C
    C   1.0     0.461419     0.766674     0.500103  Biso 1.000000     C
    C   1.0     0.428255     0.822691     0.709002  Biso 1.000000     C
    C   1.0     0.428217     0.858871     0.760652  Biso 1.000000     C
    C   1.0     0.430308     0.787790     0.801801  Biso 1.000000     C
    C   1.0     0.427261     0.899744     0.664986  Biso 1.000000     C
    C   1.0     0.998043     0.690900     0.421049  Biso 1.000000     C
    C   1.0     0.037862     0.733938     0.499850  Biso 1.000000     C
    C   1.0     0.070410     0.678074     0.708168  Biso 1.000000     C
    C   1.0     0.071455     0.640813     0.759628  Biso 1.000000     C
    C   1.0     0.069792     0.711073     0.801130  Biso 1.000000     C
    C   1.0     0.070920     0.602114     0.663735  Biso 1.000000     C
    C   1.0     0.690877     0.997227     0.078866  Biso 1.000000     C
    C   1.0     0.733941     0.036644     0.000000  Biso 1.000000     C
    C   1.0     0.678634     0.068509     0.792123  Biso 1.000000     C
    C   1.0     0.642361     0.070313     0.740495  Biso 1.000000     C
    C   1.0     0.713315     0.069007     0.699330  Biso 1.000000     C
    C   1.0     0.602216     0.069103     0.836304  Biso 1.000000     C
    C   1.0     0.810251     0.503043     0.078848  Biso 1.000000     C
    C   1.0     0.766560     0.462975     0.000000  Biso 1.000000     C
    C   1.0     0.822047     0.430267     0.790939  Biso 1.000000     C
    C   1.0     0.858192     0.428989     0.739310  Biso 1.000000     C
    C   1.0     0.787203     0.430793     0.698156  Biso 1.000000     C
    C   1.0     0.898979     0.429217     0.834952  Biso 1.000000     C
    C   1.0     0.998060     0.810237     0.079320  Biso 1.000000     C
    C   1.0     0.037034     0.766385     0.000000  Biso 1.000000     C
    C   1.0     0.070333     0.819776     0.791920  Biso 1.000000     C
    C   1.0     0.071485     0.857031     0.740460  Biso 1.000000     C
    C   1.0     0.069817     0.786779     0.698958  Biso 1.000000     C
    C   1.0     0.070872     0.895770     0.836336  Biso 1.000000     C
    C   1.0     0.502819     0.690678     0.078919  Biso 1.000000     C
    C   1.0     0.461624     0.733835     0.000000  Biso 1.000000     C
    C   1.0     0.429107     0.679257     0.792095  Biso 1.000000     C
    C   1.0     0.427078     0.643072     0.740449  Biso 1.000000     C
    C   1.0     0.428354     0.714152     0.699279  Biso 1.000000     C
    C   1.0     0.428669     0.602590     0.836259  Biso 1.000000     C
    N   1.0     0.100389     0.000381     0.550286  Biso 1.000000     N
    N   1.0     0.130796     0.977363     0.499148  Biso 1.000000     N
    N   1.0     0.274859     0.980641     0.548281  Biso 1.000000     N
    N   1.0     0.193481     0.024738     0.630108  Biso 1.000000     N
    N   1.0     0.398892     0.499598     0.550362  Biso 1.000000     N
    N   1.0     0.369087     0.524252     0.499324  Biso 1.000000     N
    N   1.0     0.224557     0.521047     0.548144  Biso 1.000000     N
    N   1.0     0.305045     0.473689     0.629797  Biso 1.000000     N
    N   1.0     0.500564     0.100788     0.550068  Biso 1.000000     N
    N   1.0     0.525717     0.130393     0.499065  Biso 1.000000     N
    N   1.0     0.522571     0.275073     0.547923  Biso 1.000000     N
    N   1.0     0.473703     0.194991     0.629387  Biso 1.000000     N
    N   1.0    -0.000207     0.398708     0.550369  Biso 1.000000     N
    N   1.0     0.975269     0.369012     0.499310  Biso 1.000000     N
    N   1.0     0.977304     0.224358     0.548209  Biso 1.000000     N
    N   1.0     0.024875     0.304588     0.629871  Biso 1.000000     N
    N   1.0     0.398626     0.000186     0.949630  Biso 1.000000     N
    N   1.0     0.368921     0.975980     0.000712  Biso 1.000000     N
    N   1.0     0.224438     0.978212     0.951761  Biso 1.000000     N
    N   1.0     0.304680     0.025366     0.870098  Biso 1.000000     N
    N   1.0     0.100524     0.499240     0.949851  Biso 1.000000     N
    N   1.0     0.130645     0.523933     0.000858  Biso 1.000000     N
    N   1.0     0.274738     0.521231     0.951734  Biso 1.000000     N
    N   1.0     0.193995     0.473445     0.870263  Biso 1.000000     N
    N   1.0    -0.000364     0.100300     0.949316  Biso 1.000000     N
    N   1.0     0.975659     0.130553     0.000376  Biso 1.000000     N
    N   1.0     0.977815     0.274811     0.951243  Biso 1.000000     N
    N   1.0     0.024239     0.193753     0.869617  Biso 1.000000     N
    N   1.0     0.499887     0.398898     0.949577  Biso 1.000000     N
    N   1.0     0.525359     0.369160     0.000546  Biso 1.000000     N
    N   1.0     0.522213     0.224435     0.951667  Biso 1.000000     N
    N   1.0     0.473045     0.304718     0.870232  Biso 1.000000     N
    N   1.0     0.899575     0.999635     0.449706  Biso 1.000000     N
    N   1.0     0.869163     0.022609     0.500849  Biso 1.000000     N
    N   1.0     0.725106     0.019367     0.451713  Biso 1.000000     N
    N   1.0     0.806491     0.975366     0.369875  Biso 1.000000     N
    N   1.0     0.601097     0.500420     0.449636  Biso 1.000000     N
    N   1.0     0.630913     0.475752     0.500671  Biso 1.000000     N
    N   1.0     0.775429     0.478928     0.451838  Biso 1.000000     N
    N   1.0     0.694918     0.526302     0.370192  Biso 1.000000     N
    N   1.0     0.499402     0.899247     0.449921  Biso 1.000000     N
    N   1.0     0.474259     0.869645     0.500926  Biso 1.000000     N
    N   1.0     0.477415     0.724960     0.452074  Biso 1.000000     N
    N   1.0     0.526261     0.805038     0.370605  Biso 1.000000     N
    N   1.0     0.000000     0.601303     0.449579  Biso 1.000000     N
    N   1.0     0.024768     0.630986     0.500633  Biso 1.000000     N
    N   1.0     0.022678     0.775652     0.451744  Biso 1.000000     N
    N   1.0     0.975011     0.695447     0.370089  Biso 1.000000     N
    N   1.0     0.601398     0.999623     0.050334  Biso 1.000000     N
    N   1.0     0.631074     0.023904     0.999257  Biso 1.000000     N
    N   1.0     0.775595     0.021482     0.048178  Biso 1.000000     N
    N   1.0     0.695415     0.974040     0.129815  Biso 1.000000     N
    N   1.0     0.899507     0.500611     0.050183  Biso 1.000000     N
    N   1.0     0.869388     0.475843     0.999185  Biso 1.000000     N
    N   1.0     0.725308     0.478485     0.048319  Biso 1.000000     N
    N   1.0     0.806047     0.526343     0.129781  Biso 1.000000     N
    N   1.0     0.000000     0.899632     0.050652  Biso 1.000000     N
    N   1.0     0.024345     0.869392     0.999595  Biso 1.000000     N
    N   1.0     0.022096     0.725115     0.048709  Biso 1.000000     N
    N   1.0     0.975545     0.806143     0.130325  Biso 1.000000     N
    N   1.0     0.500152     0.601082     0.050408  Biso 1.000000     N
    N   1.0     0.474639     0.630826     0.999445  Biso 1.000000     N
    N   1.0     0.477696     0.775528     0.048343  Biso 1.000000     N
    N   1.0     0.526920     0.695235     0.129767  Biso 1.000000     N
    O   1.0     0.138319     0.951650     0.380632  Biso 1.000000     O
    O   1.0     0.006353     0.906116     0.326816  Biso 1.000000     O
    O   1.0     0.360567     0.547284     0.381818  Biso 1.000000     O
    O   1.0     0.492600     0.595075     0.328704  Biso 1.000000     O
    O   1.0     0.550806     0.137347     0.380732  Biso 1.000000     O
    O   1.0     0.595468     0.004907     0.326850  Biso 1.000000     O
    O   1.0     0.951307     0.360032     0.381746  Biso 1.000000     O
    O   1.0     0.906279     0.493518     0.328770  Biso 1.000000     O
    O   1.0     0.360558     0.954633     0.118205  Biso 1.000000     O
    O   1.0     0.492818     0.906531     0.171251  Biso 1.000000     O
    O   1.0     0.137688     0.547153     0.119473  Biso 1.000000     O
    O   1.0     0.006179     0.595380     0.173061  Biso 1.000000     O
    O   1.0     0.951116     0.141959     0.118073  Biso 1.000000     O
    O   1.0     0.906365     0.008709     0.171152  Biso 1.000000     O
    O   1.0     0.547572     0.360366     0.118219  Biso 1.000000     O
    O   1.0     0.595414     0.492540     0.171352  Biso 1.000000     O
    O   1.0     0.861632     0.048390     0.619347  Biso 1.000000     O
    O   1.0     0.993576     0.093941     0.673170  Biso 1.000000     O
    O   1.0     0.639426     0.452737     0.618186  Biso 1.000000     O
    O   1.0     0.507376     0.404952     0.671291  Biso 1.000000     O
    O   1.0     0.449180     0.862671     0.619254  Biso 1.000000     O
    O   1.0     0.404514     0.995101     0.673139  Biso 1.000000     O
    O   1.0     0.048689     0.639984     0.618213  Biso 1.000000     O
    O   1.0     0.093702     0.506507     0.671202  Biso 1.000000     O
    O   1.0     0.639415     0.045417     0.881781  Biso 1.000000     O
    O   1.0     0.507132     0.093477     0.828741  Biso 1.000000     O
    O   1.0     0.862304     0.452884     0.880531  Biso 1.000000     O
    O   1.0     0.993801     0.404627     0.826941  Biso 1.000000     O
    O   1.0     0.048817     0.858037     0.881889  Biso 1.000000     O
    O   1.0     0.093603     0.991293     0.828826  Biso 1.000000     O
    O   1.0     0.452265     0.639640     0.881770  Biso 1.000000     O
    O   1.0     0.404560     0.507429     0.828631  Biso 1.000000     O
   Zn   1.0     0.039102     0.932868     0.438049  Biso 1.000000    Zn
   Zn   1.0     0.462128     0.568311     0.438320  Biso 1.000000    Zn
   Zn   1.0     0.568741     0.036789     0.437993  Biso 1.000000    Zn
   Zn   1.0     0.932606     0.462368     0.438172  Biso 1.000000    Zn
   Zn   1.0     0.462236     0.933006     0.061821  Biso 1.000000    Zn
   Zn   1.0     0.038551     0.568295     0.061996  Biso 1.000000    Zn
   Zn   1.0     0.932648     0.039018     0.061888  Biso 1.000000    Zn
   Zn   1.0     0.568600     0.462235     0.061790  Biso 1.000000    Zn
   Zn   1.0     0.960864     0.067155     0.561935  Biso 1.000000    Zn
   Zn   1.0     0.537867     0.431720     0.561681  Biso 1.000000    Zn
   Zn   1.0     0.431239     0.963244     0.561997  Biso 1.000000    Zn
   Zn   1.0     0.067379     0.537646     0.561792  Biso 1.000000    Zn
   Zn   1.0     0.537736     0.066985     0.938171  Biso 1.000000    Zn
   Zn   1.0     0.961443     0.431680     0.937998  Biso 1.000000    Zn
   Zn   1.0     0.067346     0.960935     0.938089  Biso 1.000000    Zn
   Zn   1.0     0.431399     0.537756     0.938205  Biso 1.000000    Zn
