#======================================================================

# CRYSTAL DATA

#----------------------------------------------------------------------

data_VESTA_phase_1


_pd_phase_name                         MOF
_cell_length_a                         17.27000
_cell_length_b                         18.31700
_cell_length_c                         18.31700
_cell_angle_alpha                      77.20000
_cell_angle_beta                       61.91900
_cell_angle_gamma                      61.91900
_symmetry_space_group_name_H-M         "P 1"
_symmetry_Int_Tables_number            1

loop_
_symmetry_equiv_pos_as_xyz
   "x, y, z"

loop_
   _atom_site_label
   _atom_site_occupancy
   _atom_site_fract_x
   _atom_site_fract_y
   _atom_site_fract_z
   _atom_site_adp_type
   _atom_site_B_iso_or_equiv
   _atom_site_type_symbol
    H   1.0     0.226736     0.138734     0.361298  Biso 1.000000     H
    H   1.0     0.226733     0.138735     0.861296  Biso 1.000000     H
    H   1.0     0.226732     0.638730     0.361298  Biso 1.000000     H
    H   1.0     0.226729     0.638730     0.861296  Biso 1.000000     H
    H   1.0     0.726734     0.138733     0.361298  Biso 1.000000     H
    H   1.0     0.726731     0.138735     0.861297  Biso 1.000000     H
    H   1.0     0.726730     0.638730     0.361298  Biso 1.000000     H
    H   1.0     0.726726     0.638732     0.861296  Biso 1.000000     H
    H   1.0     0.139631     0.115202     0.384828  Biso 1.000000     H
    H   1.0     0.139628     0.115203     0.884826  Biso 1.000000     H
    H   1.0     0.139628     0.615198     0.384828  Biso 1.000000     H
    H   1.0     0.139624     0.615199     0.884826  Biso 1.000000     H
    H   1.0     0.639629     0.115202     0.384828  Biso 1.000000     H
    H   1.0     0.639625     0.115204     0.884826  Biso 1.000000     H
    H   1.0     0.639625     0.615198     0.384828  Biso 1.000000     H
    H   1.0     0.639621     0.615200     0.884826  Biso 1.000000     H
    H   1.0     0.226736     0.361298     0.138733  Biso 1.000000     H
    H   1.0     0.226733     0.361299     0.638730  Biso 1.000000     H
    H   1.0     0.226732     0.861294     0.138732  Biso 1.000000     H
    H   1.0     0.226728     0.861296     0.638730  Biso 1.000000     H
    H   1.0     0.726735     0.361298     0.138732  Biso 1.000000     H
    H   1.0     0.726731     0.361300     0.638730  Biso 1.000000     H
    H   1.0     0.726730     0.861294     0.138733  Biso 1.000000     H
    H   1.0     0.726726     0.861296     0.638731  Biso 1.000000     H
    H   1.0     0.139631     0.384828     0.115202  Biso 1.000000     H
    H   1.0     0.139628     0.384828     0.615198  Biso 1.000000     H
    H   1.0     0.139627     0.884824     0.115201  Biso 1.000000     H
    H   1.0     0.139623     0.884825     0.615199  Biso 1.000000     H
    H   1.0     0.639630     0.384828     0.115201  Biso 1.000000     H
    H   1.0     0.639626     0.384829     0.615199  Biso 1.000000     H
    H   1.0     0.639625     0.884824     0.115201  Biso 1.000000     H
    H   1.0     0.639621     0.884825     0.615199  Biso 1.000000     H
    H   1.0     0.411727     0.361339     0.361339  Biso 1.000000     H
    H   1.0     0.411724     0.361339     0.861337  Biso 1.000000     H
    H   1.0     0.411723     0.861335     0.361338  Biso 1.000000     H
    H   1.0     0.411720     0.861336     0.861336  Biso 1.000000     H
    H   1.0     0.911726     0.361339     0.361339  Biso 1.000000     H
    H   1.0     0.911722     0.361339     0.861336  Biso 1.000000     H
    H   1.0     0.911720     0.861335     0.361339  Biso 1.000000     H
    H   1.0     0.911716     0.861337     0.861337  Biso 1.000000     H
    H   1.0     0.475336     0.384863     0.384864  Biso 1.000000     H
    H   1.0     0.475333     0.384864     0.884862  Biso 1.000000     H
    H   1.0     0.475332     0.884860     0.384863  Biso 1.000000     H
    H   1.0     0.475329     0.884861     0.884861  Biso 1.000000     H
    H   1.0     0.975334     0.384864     0.384864  Biso 1.000000     H
    H   1.0     0.975331     0.384865     0.884861  Biso 1.000000     H
    H   1.0     0.975329     0.884860     0.384864  Biso 1.000000     H
    H   1.0     0.975326     0.884861     0.884861  Biso 1.000000     H
    H   1.0     0.134571     0.138794     0.138794  Biso 1.000000     H
    H   1.0     0.134568     0.138795     0.638792  Biso 1.000000     H
    H   1.0     0.134567     0.638791     0.138794  Biso 1.000000     H
    H   1.0     0.134564     0.638792     0.638792  Biso 1.000000     H
    H   1.0     0.634569     0.138795     0.138795  Biso 1.000000     H
    H   1.0     0.634566     0.138796     0.638792  Biso 1.000000     H
    H   1.0     0.634565     0.638791     0.138794  Biso 1.000000     H
    H   1.0     0.634561     0.638793     0.638791  Biso 1.000000     H
    H   1.0     0.245204     0.115212     0.115212  Biso 1.000000     H
    H   1.0     0.245201     0.115213     0.615209  Biso 1.000000     H
    H   1.0     0.245200     0.615208     0.115212  Biso 1.000000     H
    H   1.0     0.245197     0.615209     0.615210  Biso 1.000000     H
    H   1.0     0.745202     0.115212     0.115212  Biso 1.000000     H
    H   1.0     0.745199     0.115214     0.615209  Biso 1.000000     H
    H   1.0     0.745198     0.615208     0.115211  Biso 1.000000     H
    H   1.0     0.745194     0.615209     0.615210  Biso 1.000000     H
    C   1.0     0.384093     0.138826     0.138827  Biso 1.000000     C
    C   1.0     0.384089     0.138828     0.638824  Biso 1.000000     C
    C   1.0     0.384089     0.638822     0.138826  Biso 1.000000     C
    C   1.0     0.384085     0.638822     0.638826  Biso 1.000000     C
    C   1.0     0.884091     0.138826     0.138826  Biso 1.000000     C
    C   1.0     0.884087     0.138828     0.638823  Biso 1.000000     C
    C   1.0     0.884086     0.638822     0.138827  Biso 1.000000     C
    C   1.0     0.884083     0.638823     0.638825  Biso 1.000000     C
    C   1.0     0.490561     0.116182     0.116180  Biso 1.000000     C
    C   1.0     0.490557     0.116182     0.616179  Biso 1.000000     C
    C   1.0     0.490557     0.616178     0.116181  Biso 1.000000     C
    C   1.0     0.490553     0.616181     0.616177  Biso 1.000000     C
    C   1.0     0.990559     0.116181     0.116181  Biso 1.000000     C
    C   1.0     0.990555     0.116181     0.616180  Biso 1.000000     C
    C   1.0     0.990555     0.616179     0.116180  Biso 1.000000     C
    C   1.0     0.990551     0.616180     0.616178  Biso 1.000000     C
    C   1.0     0.161734     0.360972     0.360972  Biso 1.000000     C
    C   1.0     0.161731     0.360973     0.860970  Biso 1.000000     C
    C   1.0     0.161730     0.860968     0.360973  Biso 1.000000     C
    C   1.0     0.161726     0.860970     0.860969  Biso 1.000000     C
    C   1.0     0.661732     0.360972     0.360972  Biso 1.000000     C
    C   1.0     0.661729     0.360974     0.860969  Biso 1.000000     C
    C   1.0     0.661727     0.860968     0.360972  Biso 1.000000     C
    C   1.0     0.661724     0.860969     0.860970  Biso 1.000000     C
    C   1.0     0.222682     0.383824     0.383824  Biso 1.000000     C
    C   1.0     0.222679     0.383826     0.883821  Biso 1.000000     C
    C   1.0     0.222678     0.883822     0.383823  Biso 1.000000     C
    C   1.0     0.222674     0.883821     0.883822  Biso 1.000000     C
    C   1.0     0.722680     0.383824     0.383825  Biso 1.000000     C
    C   1.0     0.722677     0.383825     0.883822  Biso 1.000000     C
    C   1.0     0.722676     0.883821     0.383824  Biso 1.000000     C
    C   1.0     0.722672     0.883822     0.883822  Biso 1.000000     C
    C   1.0     0.477004     0.139016     0.361172  Biso 1.000000     C
    C   1.0     0.477001     0.139017     0.861170  Biso 1.000000     C
    C   1.0     0.477001     0.639012     0.361171  Biso 1.000000     C
    C   1.0     0.476996     0.639014     0.861170  Biso 1.000000     C
    C   1.0     0.977003     0.139015     0.361172  Biso 1.000000     C
    C   1.0     0.976999     0.139017     0.861169  Biso 1.000000     C
    C   1.0     0.976999     0.639012     0.361171  Biso 1.000000     C
    C   1.0     0.976995     0.639013     0.861169  Biso 1.000000     C
    C   1.0     0.393256     0.116202     0.383842  Biso 1.000000     C
    C   1.0     0.393252     0.116203     0.883839  Biso 1.000000     C
    C   1.0     0.393250     0.616200     0.383843  Biso 1.000000     C
    C   1.0     0.393248     0.616200     0.883840  Biso 1.000000     C
    C   1.0     0.893252     0.116203     0.383843  Biso 1.000000     C
    C   1.0     0.893249     0.116205     0.883841  Biso 1.000000     C
    C   1.0     0.893248     0.616199     0.383843  Biso 1.000000     C
    C   1.0     0.893245     0.616200     0.883841  Biso 1.000000     C
    C   1.0     0.477004     0.361172     0.139016  Biso 1.000000     C
    C   1.0     0.477000     0.361173     0.639013  Biso 1.000000     C
    C   1.0     0.477000     0.861167     0.139014  Biso 1.000000     C
    C   1.0     0.476997     0.861168     0.639012  Biso 1.000000     C
    C   1.0     0.977002     0.361171     0.139014  Biso 1.000000     C
    C   1.0     0.977001     0.361171     0.639010  Biso 1.000000     C
    C   1.0     0.976998     0.861168     0.139015  Biso 1.000000     C
    C   1.0     0.976993     0.861170     0.639013  Biso 1.000000     C
    C   1.0     0.393256     0.383841     0.116201  Biso 1.000000     C
    C   1.0     0.393252     0.383842     0.616198  Biso 1.000000     C
    C   1.0     0.393249     0.883839     0.116203  Biso 1.000000     C
    C   1.0     0.393245     0.883841     0.616201  Biso 1.000000     C
    C   1.0     0.893251     0.383843     0.116203  Biso 1.000000     C
    C   1.0     0.893246     0.383846     0.616202  Biso 1.000000     C
    C   1.0     0.893247     0.883839     0.116202  Biso 1.000000     C
    C   1.0     0.893245     0.883839     0.616199  Biso 1.000000     C
    O   1.0     0.057200     0.062635     0.062635  Biso 1.000000     O
    O   1.0     0.057196     0.062636     0.562632  Biso 1.000000     O
    O   1.0     0.057195     0.562631     0.062635  Biso 1.000000     O
    O   1.0     0.057192     0.562632     0.562632  Biso 1.000000     O
    O   1.0     0.557197     0.062635     0.062635  Biso 1.000000     O
    O   1.0     0.557194     0.062636     0.562632  Biso 1.000000     O
    O   1.0     0.557193     0.562631     0.062635  Biso 1.000000     O
    O   1.0     0.557189     0.562632     0.562632  Biso 1.000000     O
    O   1.0     0.000977     0.157214     0.157214  Biso 1.000000     O
    O   1.0     0.000973     0.157214     0.657212  Biso 1.000000     O
    O   1.0     0.000972     0.657210     0.157213  Biso 1.000000     O
    O   1.0     0.000969     0.657212     0.657210  Biso 1.000000     O
    O   1.0     0.500974     0.157214     0.157213  Biso 1.000000     O
    O   1.0     0.500971     0.157215     0.657211  Biso 1.000000     O
    O   1.0     0.500970     0.657210     0.157213  Biso 1.000000     O
    O   1.0     0.500966     0.657212     0.657210  Biso 1.000000     O
    O   1.0     0.364828     0.102974     0.102974  Biso 1.000000     O
    O   1.0     0.364825     0.102975     0.602971  Biso 1.000000     O
    O   1.0     0.364824     0.602970     0.102974  Biso 1.000000     O
    O   1.0     0.364821     0.602971     0.602972  Biso 1.000000     O
    O   1.0     0.864826     0.102974     0.102974  Biso 1.000000     O
    O   1.0     0.864822     0.102976     0.602971  Biso 1.000000     O
    O   1.0     0.864822     0.602970     0.102974  Biso 1.000000     O
    O   1.0     0.864818     0.602971     0.602972  Biso 1.000000     O
    O   1.0     0.322987     0.194466     0.194467  Biso 1.000000     O
    O   1.0     0.322983     0.194467     0.694464  Biso 1.000000     O
    O   1.0     0.322983     0.694462     0.194466  Biso 1.000000     O
    O   1.0     0.322979     0.694462     0.694465  Biso 1.000000     O
    O   1.0     0.822985     0.194466     0.194466  Biso 1.000000     O
    O   1.0     0.822981     0.194468     0.694463  Biso 1.000000     O
    O   1.0     0.822981     0.694462     0.194467  Biso 1.000000     O
    O   1.0     0.822977     0.694463     0.694465  Biso 1.000000     O
    O   1.0     0.182170     0.437405     0.437405  Biso 1.000000     O
    O   1.0     0.182167     0.437406     0.937402  Biso 1.000000     O
    O   1.0     0.182165     0.937401     0.437405  Biso 1.000000     O
    O   1.0     0.182162     0.937402     0.937402  Biso 1.000000     O
    O   1.0     0.682168     0.437405     0.437405  Biso 1.000000     O
    O   1.0     0.682164     0.437406     0.937402  Biso 1.000000     O
    O   1.0     0.682163     0.937401     0.437405  Biso 1.000000     O
    O   1.0     0.682160     0.937402     0.937402  Biso 1.000000     O
    O   1.0     0.315065     0.342938     0.342937  Biso 1.000000     O
    O   1.0     0.315061     0.342939     0.842935  Biso 1.000000     O
    O   1.0     0.315060     0.842935     0.342937  Biso 1.000000     O
    O   1.0     0.315056     0.842935     0.842935  Biso 1.000000     O
    O   1.0     0.815062     0.342938     0.342938  Biso 1.000000     O
    O   1.0     0.815059     0.342939     0.842935  Biso 1.000000     O
    O   1.0     0.815058     0.842934     0.342937  Biso 1.000000     O
    O   1.0     0.815054     0.842935     0.842935  Biso 1.000000     O
    O   1.0     0.070854     0.396710     0.396710  Biso 1.000000     O
    O   1.0     0.070850     0.396711     0.896708  Biso 1.000000     O
    O   1.0     0.070849     0.896706     0.396710  Biso 1.000000     O
    O   1.0     0.070845     0.896707     0.896707  Biso 1.000000     O
    O   1.0     0.570851     0.396710     0.396710  Biso 1.000000     O
    O   1.0     0.570848     0.396711     0.896707  Biso 1.000000     O
    O   1.0     0.570847     0.896706     0.396710  Biso 1.000000     O
    O   1.0     0.570844     0.896707     0.896707  Biso 1.000000     O
    O   1.0     0.211999     0.305316     0.305316  Biso 1.000000     O
    O   1.0     0.211995     0.305317     0.805314  Biso 1.000000     O
    O   1.0     0.211994     0.805312     0.305317  Biso 1.000000     O
    O   1.0     0.211990     0.805314     0.805314  Biso 1.000000     O
    O   1.0     0.711996     0.305316     0.305316  Biso 1.000000     O
    O   1.0     0.711993     0.305317     0.805314  Biso 1.000000     O
    O   1.0     0.711992     0.805312     0.305316  Biso 1.000000     O
    O   1.0     0.711988     0.805313     0.805314  Biso 1.000000     O
    O   1.0     0.380197     0.062596     0.437353  Biso 1.000000     O
    O   1.0     0.380193     0.062597     0.937350  Biso 1.000000     O
    O   1.0     0.380193     0.562593     0.437353  Biso 1.000000     O
    O   1.0     0.380189     0.562594     0.937350  Biso 1.000000     O
    O   1.0     0.880195     0.062596     0.437353  Biso 1.000000     O
    O   1.0     0.880191     0.062597     0.937350  Biso 1.000000     O
    O   1.0     0.880190     0.562592     0.437353  Biso 1.000000     O
    O   1.0     0.880187     0.562594     0.937350  Biso 1.000000     O
    O   1.0     0.341786     0.157184     0.342886  Biso 1.000000     O
    O   1.0     0.341783     0.157185     0.842884  Biso 1.000000     O
    O   1.0     0.341781     0.657182     0.342887  Biso 1.000000     O
    O   1.0     0.341778     0.657182     0.842884  Biso 1.000000     O
    O   1.0     0.841783     0.157185     0.342887  Biso 1.000000     O
    O   1.0     0.841779     0.157186     0.842884  Biso 1.000000     O
    O   1.0     0.841779     0.657181     0.342887  Biso 1.000000     O
    O   1.0     0.841775     0.657182     0.842885  Biso 1.000000     O
    O   1.0     0.032176     0.103181     0.396925  Biso 1.000000     O
    O   1.0     0.032172     0.103182     0.896922  Biso 1.000000     O
    O   1.0     0.032172     0.603177     0.396925  Biso 1.000000     O
    O   1.0     0.032168     0.603178     0.896922  Biso 1.000000     O
    O   1.0     0.532173     0.103181     0.396925  Biso 1.000000     O
    O   1.0     0.532170     0.103182     0.896922  Biso 1.000000     O
    O   1.0     0.532169     0.603177     0.396924  Biso 1.000000     O
    O   1.0     0.532165     0.603179     0.896922  Biso 1.000000     O
    O   1.0     0.482324     0.194777     0.305639  Biso 1.000000     O
    O   1.0     0.482320     0.194779     0.805637  Biso 1.000000     O
    O   1.0     0.482320     0.694773     0.305638  Biso 1.000000     O
    O   1.0     0.482316     0.694774     0.805636  Biso 1.000000     O
    O   1.0     0.982322     0.194777     0.305639  Biso 1.000000     O
    O   1.0     0.982318     0.194778     0.805636  Biso 1.000000     O
    O   1.0     0.982318     0.694773     0.305638  Biso 1.000000     O
    O   1.0     0.982315     0.694774     0.805636  Biso 1.000000     O
    O   1.0     0.380196     0.437352     0.062595  Biso 1.000000     O
    O   1.0     0.380193     0.437353     0.562593  Biso 1.000000     O
    O   1.0     0.380192     0.937348     0.062595  Biso 1.000000     O
    O   1.0     0.380188     0.937349     0.562593  Biso 1.000000     O
    O   1.0     0.880194     0.437352     0.062595  Biso 1.000000     O
    O   1.0     0.880191     0.437353     0.562592  Biso 1.000000     O
    O   1.0     0.880189     0.937348     0.062595  Biso 1.000000     O
    O   1.0     0.880186     0.937350     0.562593  Biso 1.000000     O
    O   1.0     0.341786     0.342885     0.157184  Biso 1.000000     O
    O   1.0     0.341782     0.342887     0.657181  Biso 1.000000     O
    O   1.0     0.341780     0.842883     0.157185  Biso 1.000000     O
    O   1.0     0.341776     0.842884     0.657183  Biso 1.000000     O
    O   1.0     0.841782     0.342887     0.157185  Biso 1.000000     O
    O   1.0     0.841778     0.342889     0.657183  Biso 1.000000     O
    O   1.0     0.841778     0.842883     0.157185  Biso 1.000000     O
    O   1.0     0.841775     0.842883     0.657182  Biso 1.000000     O
    O   1.0     0.032175     0.396924     0.103180  Biso 1.000000     O
    O   1.0     0.032172     0.396925     0.603177  Biso 1.000000     O
    O   1.0     0.032171     0.896921     0.103180  Biso 1.000000     O
    O   1.0     0.032167     0.896922     0.603178  Biso 1.000000     O
    O   1.0     0.532173     0.396925     0.103180  Biso 1.000000     O
    O   1.0     0.532169     0.396926     0.603177  Biso 1.000000     O
    O   1.0     0.532168     0.896921     0.103180  Biso 1.000000     O
    O   1.0     0.532165     0.896922     0.603177  Biso 1.000000     O
    O   1.0     0.482323     0.305639     0.194777  Biso 1.000000     O
    O   1.0     0.482320     0.305640     0.694774  Biso 1.000000     O
    O   1.0     0.482319     0.805635     0.194776  Biso 1.000000     O
    O   1.0     0.482316     0.805636     0.694774  Biso 1.000000     O
    O   1.0     0.982322     0.305639     0.194776  Biso 1.000000     O
    O   1.0     0.982319     0.305639     0.694772  Biso 1.000000     O
    O   1.0     0.982317     0.805635     0.194776  Biso 1.000000     O
    O   1.0     0.982313     0.805637     0.694774  Biso 1.000000     O
    O   1.0     0.194567     0.103570     0.396376  Biso 1.000000     O
    O   1.0     0.194564     0.103571     0.896373  Biso 1.000000     O
    O   1.0     0.194563     0.603566     0.396375  Biso 1.000000     O
    O   1.0     0.194559     0.603567     0.896373  Biso 1.000000     O
    O   1.0     0.694565     0.103569     0.396375  Biso 1.000000     O
    O   1.0     0.694561     0.103571     0.896374  Biso 1.000000     O
    O   1.0     0.694561     0.603566     0.396375  Biso 1.000000     O
    O   1.0     0.694557     0.603568     0.896373  Biso 1.000000     O
    O   1.0     0.194566     0.396375     0.103569  Biso 1.000000     O
    O   1.0     0.194563     0.396376     0.603567  Biso 1.000000     O
    O   1.0     0.194563     0.896370     0.103568  Biso 1.000000     O
    O   1.0     0.194560     0.896372     0.603565  Biso 1.000000     O
    O   1.0     0.694565     0.396375     0.103568  Biso 1.000000     O
    O   1.0     0.694562     0.396376     0.603565  Biso 1.000000     O
    O   1.0     0.694560     0.896371     0.103568  Biso 1.000000     O
    O   1.0     0.694556     0.896373     0.603567  Biso 1.000000     O
    O   1.0     0.408863     0.396462     0.396462  Biso 1.000000     O
    O   1.0     0.408859     0.396462     0.896460  Biso 1.000000     O
    O   1.0     0.408859     0.896459     0.396461  Biso 1.000000     O
    O   1.0     0.408855     0.896459     0.896459  Biso 1.000000     O
    O   1.0     0.908861     0.396462     0.396462  Biso 1.000000     O
    O   1.0     0.908857     0.396463     0.896459  Biso 1.000000     O
    O   1.0     0.908856     0.896458     0.396462  Biso 1.000000     O
    O   1.0     0.908852     0.896460     0.896460  Biso 1.000000     O
    O   1.0     0.201838     0.103655     0.103655  Biso 1.000000     O
    O   1.0     0.201834     0.103656     0.603652  Biso 1.000000     O
    O   1.0     0.201834     0.603651     0.103655  Biso 1.000000     O
    O   1.0     0.201830     0.603653     0.603652  Biso 1.000000     O
    O   1.0     0.701835     0.103655     0.103655  Biso 1.000000     O
    O   1.0     0.701832     0.103657     0.603652  Biso 1.000000     O
    O   1.0     0.701831     0.603652     0.103654  Biso 1.000000     O
    O   1.0     0.701827     0.603653     0.603652  Biso 1.000000     O
   Sr   1.0     0.249934     0.000023     0.000022  Biso 1.000000    Sr
   Sr   1.0     0.249930     0.000024     0.500020  Biso 1.000000    Sr
   Sr   1.0     0.249930     0.500019     0.000023  Biso 1.000000    Sr
   Sr   1.0     0.249926     0.500021     0.500020  Biso 1.000000    Sr
   Sr   1.0     0.749931     0.000023     0.000023  Biso 1.000000    Sr
   Sr   1.0     0.749928     0.000024     0.500020  Biso 1.000000    Sr
   Sr   1.0     0.749928     0.500019     0.000022  Biso 1.000000    Sr
   Sr   1.0     0.749924     0.500021     0.500020  Biso 1.000000    Sr
   Zr   1.0     0.374924     0.250041     0.250041  Biso 1.000000    Zr
   Zr   1.0     0.374920     0.250042     0.750038  Biso 1.000000    Zr
   Zr   1.0     0.374919     0.750037     0.250040  Biso 1.000000    Zr
   Zr   1.0     0.374915     0.750038     0.750038  Biso 1.000000    Zr
   Zr   1.0     0.874921     0.250041     0.250041  Biso 1.000000    Zr
   Zr   1.0     0.874918     0.250042     0.750038  Biso 1.000000    Zr
   Zr   1.0     0.874917     0.750037     0.250040  Biso 1.000000    Zr
   Zr   1.0     0.874914     0.750038     0.750038  Biso 1.000000    Zr
   Cd   1.0     0.000058    -0.000105    -0.000105  Biso 1.000000    Cd
   Cd   1.0     0.000054    -0.000104     0.499892  Biso 1.000000    Cd
   Cd   1.0     0.000054     0.499891    -0.000105  Biso 1.000000    Cd
   Cd   1.0     0.000050     0.499893     0.499892  Biso 1.000000    Cd
   Cd   1.0     0.500056    -0.000105    -0.000105  Biso 1.000000    Cd
   Cd   1.0     0.500052    -0.000104     0.499892  Biso 1.000000    Cd
   Cd   1.0     0.500048     0.499893     0.499892  Biso 1.000000    Cd
   Cd   1.0     0.500052     0.499891    -0.000105  Biso 1.000000    Cd
