#======================================================================

# CRYSTAL DATA

#----------------------------------------------------------------------

data_VESTA_phase_1


_pd_phase_name                         MOF
_cell_length_a                         18.07700
_cell_length_b                         18.09900
_cell_length_c                         19.12900
_cell_angle_alpha                      89.93000
_cell_angle_beta                       90.00600
_cell_angle_gamma                      120.04800
_symmetry_space_group_name_H-M         "P 1"
_symmetry_Int_Tables_number            1

loop_
_symmetry_equiv_pos_as_xyz
   "x, y, z"

loop_
   _atom_site_label
   _atom_site_occupancy
   _atom_site_fract_x
   _atom_site_fract_y
   _atom_site_fract_z
   _atom_site_adp_type
   _atom_site_B_iso_or_equiv
   _atom_site_type_symbol
    H   1.0     0.792925     0.135399     0.432983  Biso 1.000000     H
    H   1.0     0.925073     0.204246     0.505420  Biso 1.000000     H
    H   1.0     0.981534     0.456239     0.439520  Biso 1.000000     H
    H   1.0     0.856033     0.460685    -0.006042  Biso 1.000000     H
    H   1.0     0.089876     0.655987     0.089759  Biso 1.000000     H
    H   1.0     0.023831     0.619513     0.208085  Biso 1.000000     H
    H   1.0     0.342215     0.206803     0.433161  Biso 1.000000     H
    H   1.0     0.278739     0.074531     0.505526  Biso 1.000000     H
    H   1.0     0.474249     0.018107     0.439346  Biso 1.000000     H
    H   1.0     0.603344     0.143500    -0.006112  Biso 1.000000     H
    H   1.0     0.565123     0.909960     0.089895  Biso 1.000000     H
    H   1.0     0.594710     0.975777     0.208181  Biso 1.000000     H
    H   1.0     0.864389     0.656650     0.433553  Biso 1.000000     H
    H   1.0     0.795729     0.720341     0.505547  Biso 1.000000     H
    H   1.0     0.543374     0.525977     0.438786  Biso 1.000000     H
    H   1.0     0.538680     0.395390    -0.006098  Biso 1.000000     H
    H   1.0     0.344221     0.434995     0.089958  Biso 1.000000     H
    H   1.0     0.380632     0.405426     0.208278  Biso 1.000000     H
    H   1.0     0.658618     0.864811     0.566848  Biso 1.000000     H
    H   1.0     0.721567     0.795807     0.494462  Biso 1.000000     H
    H   1.0     0.524841     0.543920     0.560024  Biso 1.000000     H
    H   1.0     0.395658     0.539506     0.000000  Biso 1.000000     H
    H   1.0     0.434009     0.344421     0.910176  Biso 1.000000     H
    H   1.0     0.404764     0.381062     0.791830  Biso 1.000000     H
    H   1.0     0.135353     0.791854     0.566394  Biso 1.000000     H
    H   1.0     0.203955     0.924360     0.494269  Biso 1.000000     H
    H   1.0     0.456357     0.982515     0.561158  Biso 1.000000     H
    H   1.0     0.459966     0.856514     0.000000  Biso 1.000000     H
    H   1.0     0.655575     0.090427     0.910260  Biso 1.000000     H
    H   1.0     0.619976     0.024529     0.791987  Biso 1.000000     H
    H   1.0     0.207133     0.343052     0.567101  Biso 1.000000     H
    H   1.0     0.074842     0.279442     0.494794  Biso 1.000000     H
    H   1.0     0.017480     0.474098     0.560902  Biso 1.000000     H
    H   1.0     0.143569     0.605094     0.000000  Biso 1.000000     H
    H   1.0     0.909310     0.564904     0.909891  Biso 1.000000     H
    H   1.0     0.975328     0.594050     0.791572  Biso 1.000000     H
    C   1.0     0.865927     0.347944     0.398938  Biso 1.000000     C
    C   1.0     0.812898     0.258201     0.396534  Biso 1.000000     C
    C   1.0     0.833866     0.204533     0.434475  Biso 1.000000     C
    C   1.0     0.907706     0.243650     0.474122  Biso 1.000000     C
    C   1.0     0.961290     0.334357     0.477631  Biso 1.000000     C
    C   1.0     0.940708     0.387063     0.439257  Biso 1.000000     C
    C   1.0     0.902361     0.519533     0.166714  Biso 1.000000     C
    C   1.0     0.855536     0.476291     0.106349  Biso 1.000000     C
    C   1.0     0.892564     0.496388     0.039512  Biso 1.000000     C
    C   1.0     0.977842     0.560669     0.034298  Biso 1.000000     C
    C   1.0     0.023995     0.604533     0.095778  Biso 1.000000     C
    C   1.0     0.988047     0.585369     0.161751  Biso 1.000000     C
    C   1.0     0.481726     0.133807     0.398917  Biso 1.000000     C
    C   1.0     0.444988     0.186789     0.396546  Biso 1.000000     C
    C   1.0     0.370327     0.165806     0.434552  Biso 1.000000     C
    C   1.0     0.335527     0.091932     0.474167  Biso 1.000000     C
    C   1.0     0.372630     0.038350     0.477563  Biso 1.000000     C
    C   1.0     0.445977     0.058980     0.439172  Biso 1.000000     C
    C   1.0     0.616035     0.097102     0.166705  Biso 1.000000     C
    C   1.0     0.619664     0.143954     0.106292  Biso 1.000000     C
    C   1.0     0.602622     0.107020     0.039485  Biso 1.000000     C
    C   1.0     0.581671     0.021877     0.034360  Biso 1.000000     C
    C   1.0     0.579426     0.975702     0.095875  Biso 1.000000     C
    C   1.0     0.596225     0.011551     0.161824  Biso 1.000000     C
    C   1.0     0.651579     0.518002     0.398838  Biso 1.000000     C
    C   1.0     0.741385     0.554432     0.396671  Biso 1.000000     C
    C   1.0     0.795223     0.628844     0.434724  Biso 1.000000     C
    C   1.0     0.756217     0.663776     0.474127  Biso 1.000000     C
    C   1.0     0.665452     0.627116     0.477225  Biso 1.000000     C
    C   1.0     0.612576     0.553962     0.438822  Biso 1.000000     C
    C   1.0     0.480185     0.383400     0.166781  Biso 1.000000     C
    C   1.0     0.523249     0.379591     0.106360  Biso 1.000000     C
    C   1.0     0.503160     0.396473     0.039515  Biso 1.000000     C
    C   1.0     0.439137     0.417749     0.034368  Biso 1.000000     C
    C   1.0     0.395490     0.420356     0.095913  Biso 1.000000     C
    C   1.0     0.414609     0.403543     0.161890  Biso 1.000000     C
    C   1.0     0.518028     0.652318     0.600609  Biso 1.000000     C
    C   1.0     0.555213     0.742083     0.603211  Biso 1.000000     C
    C   1.0     0.630085     0.795660     0.565335  Biso 1.000000     C
    C   1.0     0.664612     0.756452     0.525685  Biso 1.000000     C
    C   1.0     0.627106     0.665732     0.522120  Biso 1.000000     C
    C   1.0     0.553508     0.613110     0.560320  Biso 1.000000     C
    C   1.0     0.383355     0.480924     0.833204  Biso 1.000000     C
    C   1.0     0.379700     0.524036     0.893579  Biso 1.000000     C
    C   1.0     0.396501     0.503883     0.960434  Biso 1.000000     C
    C   1.0     0.417385     0.439642     0.965646  Biso 1.000000     C
    C   1.0     0.419722     0.395878     0.904159  Biso 1.000000     C
    C   1.0     0.403091     0.415130     0.838169  Biso 1.000000     C
    C   1.0     0.348197     0.866286     0.601287  Biso 1.000000     C
    C   1.0     0.258399     0.812759     0.603315  Biso 1.000000     C
    C   1.0     0.204511     0.833283     0.565188  Biso 1.000000     C
    C   1.0     0.243479     0.907279     0.525723  Biso 1.000000     C
    C   1.0     0.334242     0.961404     0.522608  Biso 1.000000     C
    C   1.0     0.387161     0.941239     0.561157  Biso 1.000000     C
    C   1.0     0.519836     0.903005     0.833322  Biso 1.000000     C
    C   1.0     0.476254     0.856151     0.893665  Biso 1.000000     C
    C   1.0     0.495902     0.893083     0.960472  Biso 1.000000     C
    C   1.0     0.560069     0.978315     0.965673  Biso 1.000000     C
    C   1.0     0.604233     0.024569     0.904223  Biso 1.000000     C
    C   1.0     0.585543     0.988665     0.838284  Biso 1.000000     C
    C   1.0     0.133464     0.481920     0.601243  Biso 1.000000     C
    C   1.0     0.186668     0.445416     0.603650  Biso 1.000000     C
    C   1.0     0.165925     0.370945     0.565709  Biso 1.000000     C
    C   1.0     0.092023     0.336057     0.526135  Biso 1.000000     C
    C   1.0     0.038152     0.372862     0.522730  Biso 1.000000     C
    C   1.0     0.058552     0.446028     0.561079  Biso 1.000000     C
    C   1.0     0.096985     0.616350     0.833201  Biso 1.000000     C
    C   1.0     0.143958     0.620559     0.893684  Biso 1.000000     C
    C   1.0     0.106943     0.603836     0.960523  Biso 1.000000     C
    C   1.0     0.021546     0.582438     0.965596  Biso 1.000000     C
    C   1.0     0.975268     0.579564     0.903990  Biso 1.000000     C
    C   1.0     0.011185     0.596125     0.838014  Biso 1.000000     C
    N   1.0     0.745831     0.241419     0.353669  Biso 1.000000     N
    N   1.0     0.757126     0.316604     0.331040  Biso 1.000000     N
    N   1.0     0.829068     0.381804     0.357115  Biso 1.000000     N
    N   1.0     0.849089     0.484073     0.222667  Biso 1.000000     N
    N   1.0     0.773867     0.422323     0.198052  Biso 1.000000     N
    N   1.0     0.775682     0.416124     0.128297  Biso 1.000000     N
    N   1.0     0.495258     0.253822     0.353616  Biso 1.000000     N
    N   1.0     0.559224     0.242595     0.331053  Biso 1.000000     N
    N   1.0     0.552563     0.170749     0.357161  Biso 1.000000     N
    N   1.0     0.633941     0.150268     0.222616  Biso 1.000000     N
    N   1.0     0.647631     0.225515     0.197944  Biso 1.000000     N
    N   1.0     0.639606     0.223757     0.128171  Biso 1.000000     N
    N   1.0     0.758073     0.504141     0.353888  Biso 1.000000     N
    N   1.0     0.682767     0.440371     0.331233  Biso 1.000000     N
    N   1.0     0.617572     0.447244     0.357161  Biso 1.000000     N
    N   1.0     0.515541     0.365488     0.222710  Biso 1.000000     N
    N   1.0     0.577097     0.351757     0.198053  Biso 1.000000     N
    N   1.0     0.583226     0.359700     0.128260  Biso 1.000000     N
    N   1.0     0.505088     0.758921     0.646191  Biso 1.000000     N
    N   1.0     0.440818     0.683714     0.668625  Biso 1.000000     N
    N   1.0     0.447139     0.618473     0.642324  Biso 1.000000     N
    N   1.0     0.365607     0.516366     0.777242  Biso 1.000000     N
    N   1.0     0.352100     0.578001     0.801850  Biso 1.000000     N
    N   1.0     0.360047     0.584127     0.871630  Biso 1.000000     N
    N   1.0     0.241725     0.745684     0.646093  Biso 1.000000     N
    N   1.0     0.317022     0.757409     0.668997  Biso 1.000000     N
    N   1.0     0.382215     0.829645     0.643188  Biso 1.000000     N
    N   1.0     0.484744     0.849784     0.777402  Biso 1.000000     N
    N   1.0     0.422897     0.774567     0.802009  Biso 1.000000     N
    N   1.0     0.416295     0.776347     0.871733  Biso 1.000000     N
    N   1.0     0.253704     0.495733     0.646477  Biso 1.000000     N
    N   1.0     0.242344     0.559554     0.668942  Biso 1.000000     N
    N   1.0     0.170346     0.552703     0.642866  Biso 1.000000     N
    N   1.0     0.150276     0.634101     0.777291  Biso 1.000000     N
    N   1.0     0.225701     0.648195     0.802014  Biso 1.000000     N
    N   1.0     0.223941     0.640613     0.871836  Biso 1.000000     N
   Zn   1.0     0.874876     0.510909     0.330333  Biso 1.000000    Zn
   Zn   1.0     0.635799     0.124663     0.330086  Biso 1.000000    Zn
   Zn   1.0     0.488491     0.364091     0.330195  Biso 1.000000    Zn
   Zn   1.0     0.364157     0.489398     0.669751  Biso 1.000000    Zn
   Zn   1.0     0.511629     0.875604     0.669698  Biso 1.000000    Zn
   Zn   1.0     0.124593     0.635935     0.669872  Biso 1.000000    Zn
   Zn   1.0     0.666283     0.333175     0.264160  Biso 1.000000    Zn
   Zn   1.0     0.666013     0.333112     0.069403  Biso 1.000000    Zn
   Zn   1.0     0.333535     0.666938     0.735817  Biso 1.000000    Zn
   Zn   1.0     0.333278     0.666646     0.930581  Biso 1.000000    Zn
