#======================================================================

# CRYSTAL DATA

#----------------------------------------------------------------------

data_VESTA_phase_1


_pd_phase_name                         MOF
_cell_length_a                         23.82500
_cell_length_b                         14.23200
_cell_length_c                         14.21400
_cell_angle_alpha                      120.05900
_cell_angle_beta                       90.01900
_cell_angle_gamma                      90.02100
_symmetry_space_group_name_H-M         "P 1"
_symmetry_Int_Tables_number            1

loop_
_symmetry_equiv_pos_as_xyz
   "x, y, z"

loop_
   _atom_site_label
   _atom_site_occupancy
   _atom_site_fract_x
   _atom_site_fract_y
   _atom_site_fract_z
   _atom_site_adp_type
   _atom_site_B_iso_or_equiv
   _atom_site_type_symbol
    H   1.0     0.050740     0.984175     0.290817  Biso 1.000000     H
    H   1.0     0.549892     0.985534     0.290699  Biso 1.000000     H
    H   1.0     0.460604     0.890997     0.303463  Biso 1.000000     H
    H   1.0     0.961648     0.889056     0.303509  Biso 1.000000     H
    H   1.0     0.383533     0.306047     0.014731  Biso 1.000000     H
    H   1.0     0.883560     0.306988     0.014815  Biso 1.000000     H
    H   1.0     0.293996     0.412617     0.108755  Biso 1.000000     H
    H   1.0     0.794180     0.414024     0.109063  Biso 1.000000     H
    H   1.0     0.217697     0.708358     0.692794  Biso 1.000000     H
    H   1.0     0.717238     0.708621     0.692743  Biso 1.000000     H
    H   1.0     0.128125     0.695435     0.586018  Biso 1.000000     H
    H   1.0     0.627856     0.695402     0.585343  Biso 1.000000     H
    H   1.0     0.300210     0.014974     0.709201  Biso 1.000000     H
    H   1.0     0.800228     0.014872     0.709077  Biso 1.000000     H
    H   1.0     0.211138     0.109893     0.696299  Biso 1.000000     H
    H   1.0     0.710937     0.109321     0.696333  Biso 1.000000     H
    H   1.0     0.133316     0.693575     0.985341  Biso 1.000000     H
    H   1.0     0.634066     0.692615     0.984107  Biso 1.000000     H
    H   1.0     0.043763     0.586816     0.891191  Biso 1.000000     H
    H   1.0     0.544706     0.585197     0.889658  Biso 1.000000     H
    H   1.0     0.467795     0.291813     0.308206  Biso 1.000000     H
    H   1.0     0.967088     0.291146     0.306562  Biso 1.000000     H
    H   1.0     0.378438     0.304762     0.415403  Biso 1.000000     H
    H   1.0     0.877614     0.304391     0.413639  Biso 1.000000     H
    C   1.0     0.068951     0.193572     0.644401  Biso 1.000000     C
    C   1.0     0.568848     0.193388     0.644340  Biso 1.000000     C
    C   1.0     0.034198     0.110662     0.556421  Biso 1.000000     C
    C   1.0     0.533809     0.111113     0.556392  Biso 1.000000     C
    C   1.0     0.484270     0.059472     0.563121  Biso 1.000000     C
    C   1.0     0.984690     0.058889     0.563109  Biso 1.000000     C
    C   1.0     0.455321     0.074149     0.660601  Biso 1.000000     C
    C   1.0     0.955464     0.073935     0.660493  Biso 1.000000     C
    C   1.0     0.031190     0.003809     0.367934  Biso 1.000000     C
    C   1.0     0.530410     0.005059     0.367843  Biso 1.000000     C
    C   1.0     0.481629     0.954916     0.375394  Biso 1.000000     C
    C   1.0     0.982475     0.953433     0.375402  Biso 1.000000     C
    C   1.0     0.402306     0.451274     0.806857  Biso 1.000000     C
    C   1.0     0.902319     0.451563     0.806316  Biso 1.000000     C
    C   1.0     0.367303     0.445733     0.889135  Biso 1.000000     C
    C   1.0     0.867353     0.446325     0.888814  Biso 1.000000     C
    C   1.0     0.317665     0.503842     0.940601  Biso 1.000000     C
    C   1.0     0.817804     0.504675     0.940417  Biso 1.000000     C
    C   1.0     0.288566     0.586478     0.926025  Biso 1.000000     C
    C   1.0     0.788804     0.587305     0.925740  Biso 1.000000     C
    C   1.0     0.363991     0.363453     0.995117  Biso 1.000000     C
    C   1.0     0.864057     0.364367     0.995122  Biso 1.000000     C
    C   1.0     0.315064     0.420761     0.045029  Biso 1.000000     C
    C   1.0     0.815213     0.421933     0.045166  Biso 1.000000     C
    C   1.0     0.235907     0.355350     0.548844  Biso 1.000000     C
    C   1.0     0.735605     0.355608     0.548849  Biso 1.000000     C
    C   1.0     0.201079     0.443011     0.553798  Biso 1.000000     C
    C   1.0     0.700809     0.443264     0.553782  Biso 1.000000     C
    C   1.0     0.151443     0.436191     0.495531  Biso 1.000000     C
    C   1.0     0.651275     0.436252     0.495205  Biso 1.000000     C
    C   1.0     0.122254     0.338808     0.413008  Biso 1.000000     C
    C   1.0     0.622254     0.338781     0.412422  Biso 1.000000     C
    C   1.0     0.198045     0.631285     0.635537  Biso 1.000000     C
    C   1.0     0.697671     0.631480     0.635406  Biso 1.000000     C
    C   1.0     0.149103     0.623659     0.578108  Biso 1.000000     C
    C   1.0     0.648837     0.623714     0.577636  Biso 1.000000     C
    C   1.0     0.318753     0.806419     0.355615  Biso 1.000000     C
    C   1.0     0.818996     0.807023     0.355516  Biso 1.000000     C
    C   1.0     0.283909     0.889013     0.443524  Biso 1.000000     C
    C   1.0     0.784013     0.889325     0.443428  Biso 1.000000     C
    C   1.0     0.234457     0.940779     0.436712  Biso 1.000000     C
    C   1.0     0.734424     0.940828     0.436678  Biso 1.000000     C
    C   1.0     0.205409     0.925978     0.339223  Biso 1.000000     C
    C   1.0     0.705260     0.926038     0.339276  Biso 1.000000     C
    C   1.0     0.280725     0.995429     0.632030  Biso 1.000000     C
    C   1.0     0.780727     0.995363     0.631931  Biso 1.000000     C
    C   1.0     0.232036     0.045751     0.624424  Biso 1.000000     C
    C   1.0     0.731920     0.045429     0.624405  Biso 1.000000     C
    C   1.0     0.152116     0.548344     0.193261  Biso 1.000000     C
    C   1.0     0.652675     0.548993     0.193450  Biso 1.000000     C
    C   1.0     0.117096     0.553878     0.110965  Biso 1.000000     C
    C   1.0     0.617709     0.553927     0.110747  Biso 1.000000     C
    C   1.0     0.067478     0.495630     0.059371  Biso 1.000000     C
    C   1.0     0.568116     0.495529     0.059192  Biso 1.000000     C
    C   1.0     0.038472     0.412815     0.073805  Biso 1.000000     C
    C   1.0     0.538918     0.413295     0.074258  Biso 1.000000     C
    C   1.0     0.113754     0.636180     0.004978  Biso 1.000000     C
    C   1.0     0.614515     0.635360     0.003946  Biso 1.000000     C
    C   1.0     0.064846     0.578722     0.954953  Biso 1.000000     C
    C   1.0     0.565688     0.577631     0.953818  Biso 1.000000     C
    C   1.0     0.485915     0.644747     0.451283  Biso 1.000000     C
    C   1.0     0.985885     0.644116     0.450700  Biso 1.000000     C
    C   1.0     0.451194     0.557100     0.446745  Biso 1.000000     C
    C   1.0     0.950897     0.556532     0.445624  Biso 1.000000     C
    C   1.0     0.401635     0.563958     0.505194  Biso 1.000000     C
    C   1.0     0.901308     0.563541     0.504002  Biso 1.000000     C
    C   1.0     0.372408     0.661279     0.587605  Biso 1.000000     C
    C   1.0     0.872298     0.661013     0.586580  Biso 1.000000     C
    C   1.0     0.448202     0.368899     0.365442  Biso 1.000000     C
    C   1.0     0.947566     0.368287     0.363861  Biso 1.000000     C
    C   1.0     0.399352     0.376508     0.423036  Biso 1.000000     C
    C   1.0     0.898687     0.376078     0.421462  Biso 1.000000     C
    N   1.0     0.059143     0.259211     0.751259  Biso 1.000000     N
    N   1.0     0.559412     0.258629     0.751398  Biso 1.000000     N
    N   1.0     0.106645     0.318947     0.793886  Biso 1.000000     N
    N   1.0     0.607155     0.317587     0.793812  Biso 1.000000     N
    N   1.0     0.143928     0.290991     0.715789  Biso 1.000000     N
    N   1.0     0.644230     0.289598     0.715391  Biso 1.000000     N
    N   1.0     0.121252     0.213271     0.621640  Biso 1.000000     N
    N   1.0     0.621159     0.212664     0.621282  Biso 1.000000     N
    N   1.0     0.056491     0.079932     0.457507  Biso 1.000000     N
    N   1.0     0.555915     0.080749     0.457412  Biso 1.000000     N
    N   1.0     0.459383     0.981654     0.471441  Biso 1.000000     N
    N   1.0     0.960093     0.980460     0.471420  Biso 1.000000     N
    N   1.0     0.451187     0.161605     0.760595  Biso 1.000000     N
    N   1.0     0.950846     0.161687     0.760158  Biso 1.000000     N
    N   1.0     0.415561     0.134014     0.817721  Biso 1.000000     N
    N   1.0     0.915023     0.134176     0.817078  Biso 1.000000     N
    N   1.0     0.399218     0.033352     0.755408  Biso 1.000000     N
    N   1.0     0.899016     0.033279     0.754956  Biso 1.000000     N
    N   1.0     0.423150     0.993836     0.656269  Biso 1.000000     N
    N   1.0     0.923351     0.993566     0.656154  Biso 1.000000     N
    N   1.0     0.392754     0.493006     0.741699  Biso 1.000000     N
    N   1.0     0.892836     0.493029     0.740916  Biso 1.000000     N
    N   1.0     0.440430     0.476361     0.682603  Biso 1.000000     N
    N   1.0     0.940459     0.475902     0.681562  Biso 1.000000     N
    N   1.0     0.477563     0.425968     0.710443  Biso 1.000000     N
    N   1.0     0.977516     0.425492     0.709508  Biso 1.000000     N
    N   1.0     0.454611     0.408861     0.787416  Biso 1.000000     N
    N   1.0     0.954549     0.408894     0.786783  Biso 1.000000     N
    N   1.0     0.389514     0.377426     0.919615  Biso 1.000000     N
    N   1.0     0.889526     0.378063     0.919394  Biso 1.000000     N
    N   1.0     0.292741     0.489851     0.018259  Biso 1.000000     N
    N   1.0     0.792924     0.490967     0.018286  Biso 1.000000     N
    N   1.0     0.284421     0.599147     0.838706  Biso 1.000000     N
    N   1.0     0.784685     0.599802     0.838317  Biso 1.000000     N
    N   1.0     0.248595     0.683528     0.866314  Biso 1.000000     N
    N   1.0     0.748985     0.684367     0.865944  Biso 1.000000     N
    N   1.0     0.232164     0.721630     0.966933  Biso 1.000000     N
    N   1.0     0.732581     0.722664     0.966628  Biso 1.000000     N
    N   1.0     0.256172     0.662135     0.006366  Biso 1.000000     N
    N   1.0     0.756525     0.663167     0.006124  Biso 1.000000     N
    N   1.0     0.226246     0.248602     0.507774  Biso 1.000000     N
    N   1.0     0.725814     0.248894     0.507829  Biso 1.000000     N
    N   1.0     0.273784     0.206441     0.525191  Biso 1.000000     N
    N   1.0     0.773331     0.206605     0.525149  Biso 1.000000     N
    N   1.0     0.310963     0.284736     0.575420  Biso 1.000000     N
    N   1.0     0.810594     0.284773     0.575290  Biso 1.000000     N
    N   1.0     0.288170     0.378484     0.591546  Biso 1.000000     N
    N   1.0     0.787892     0.378638     0.591501  Biso 1.000000     N
    N   1.0     0.223424     0.541894     0.621896  Biso 1.000000     N
    N   1.0     0.723086     0.542184     0.621931  Biso 1.000000     N
    N   1.0     0.126659     0.527704     0.509178  Biso 1.000000     N
    N   1.0     0.626513     0.527679     0.508550  Biso 1.000000     N
    N   1.0     0.118077     0.239027     0.400616  Biso 1.000000     N
    N   1.0     0.617879     0.238994     0.399946  Biso 1.000000     N
    N   1.0     0.082194     0.181978     0.316154  Biso 1.000000     N
    N   1.0     0.582246     0.181997     0.315004  Biso 1.000000     N
    N   1.0     0.065740     0.244137     0.277802  Biso 1.000000     N
    N   1.0     0.566137     0.244204     0.276481  Biso 1.000000     N
    N   1.0     0.089844     0.343082     0.337153  Biso 1.000000     N
    N   1.0     0.590199     0.343126     0.336224  Biso 1.000000     N
    N   1.0     0.309043     0.740932     0.248673  Biso 1.000000     N
    N   1.0     0.809372     0.741795     0.248499  Biso 1.000000     N
    N   1.0     0.356617     0.681550     0.206184  Biso 1.000000     N
    N   1.0     0.856984     0.682600     0.205921  Biso 1.000000     N
    N   1.0     0.393844     0.709541     0.284447  Biso 1.000000     N
    N   1.0     0.894170     0.710427     0.284208  Biso 1.000000     N
    N   1.0     0.371047     0.786904     0.378572  Biso 1.000000     N
    N   1.0     0.871297     0.787461     0.378440  Biso 1.000000     N
    N   1.0     0.306090     0.919507     0.542513  Biso 1.000000     N
    N   1.0     0.806206     0.919770     0.542384  Biso 1.000000     N
    N   1.0     0.209738     0.018913     0.528351  Biso 1.000000     N
    N   1.0     0.709589     0.018611     0.528368  Biso 1.000000     N
    N   1.0     0.200980     0.838414     0.239360  Biso 1.000000     N
    N   1.0     0.700978     0.838541     0.239334  Biso 1.000000     N
    N   1.0     0.165351     0.866045     0.182255  Biso 1.000000     N
    N   1.0     0.665112     0.865871     0.182329  Biso 1.000000     N
    N   1.0     0.149273     0.966844     0.244473  Biso 1.000000     N
    N   1.0     0.648753     0.966458     0.244668  Biso 1.000000     N
    N   1.0     0.173370     0.006377     0.343502  Biso 1.000000     N
    N   1.0     0.672905     0.006153     0.343678  Biso 1.000000     N
    N   1.0     0.142643     0.506569     0.258395  Biso 1.000000     N
    N   1.0     0.643179     0.507780     0.259060  Biso 1.000000     N
    N   1.0     0.190319     0.523464     0.317629  Biso 1.000000     N
    N   1.0     0.690810     0.525095     0.318527  Biso 1.000000     N
    N   1.0     0.227395     0.574025     0.289872  Biso 1.000000     N
    N   1.0     0.727883     0.575382     0.290444  Biso 1.000000     N
    N   1.0     0.204379     0.590991     0.212854  Biso 1.000000     N
    N   1.0     0.704923     0.591711     0.212970  Biso 1.000000     N
    N   1.0     0.139281     0.622268     0.080542  Biso 1.000000     N
    N   1.0     0.639947     0.621940     0.079891  Biso 1.000000     N
    N   1.0     0.042532     0.509600     0.981710  Biso 1.000000     N
    N   1.0     0.543341     0.508832     0.980966  Biso 1.000000     N
    N   1.0     0.034411     0.399989     0.161035  Biso 1.000000     N
    N   1.0     0.534687     0.401252     0.161932  Biso 1.000000     N
    N   1.0     0.498715     0.317065     0.134638  Biso 1.000000     N
    N   1.0     0.998682     0.315334     0.133191  Biso 1.000000     N
    N   1.0     0.482267     0.278560     0.033918  Biso 1.000000     N
    N   1.0     0.982216     0.277289     0.032557  Biso 1.000000     N
    N   1.0     0.006164     0.337028     0.993306  Biso 1.000000     N
    N   1.0     0.506457     0.337537     0.994050  Biso 1.000000     N
    N   1.0     0.476078     0.751380     0.491996  Biso 1.000000     N
    N   1.0     0.976384     0.750903     0.491802  Biso 1.000000     N
    N   1.0     0.024050     0.792989     0.474643  Biso 1.000000     N
    N   1.0     0.523464     0.793703     0.474220  Biso 1.000000     N
    N   1.0     0.061137     0.714617     0.424522  Biso 1.000000     N
    N   1.0     0.560722     0.715634     0.424172  Biso 1.000000     N
    N   1.0     0.038173     0.620883     0.408196  Biso 1.000000     N
    N   1.0     0.538150     0.621820     0.408471  Biso 1.000000     N
    N   1.0     0.473537     0.458251     0.378805  Biso 1.000000     N
    N   1.0     0.973075     0.457585     0.377458  Biso 1.000000     N
    N   1.0     0.376911     0.472449     0.491796  Biso 1.000000     N
    N   1.0     0.876412     0.472112     0.490458  Biso 1.000000     N
    N   1.0     0.368166     0.761051     0.599997  Biso 1.000000     N
    N   1.0     0.868227     0.760814     0.599004  Biso 1.000000     N
    N   1.0     0.332325     0.818004     0.684463  Biso 1.000000     N
    N   1.0     0.832458     0.817912     0.683568  Biso 1.000000     N
    N   1.0     0.315947     0.755783     0.722798  Biso 1.000000     N
    N   1.0     0.815994     0.755760     0.721936  Biso 1.000000     N
    N   1.0     0.340062     0.656914     0.663462  Biso 1.000000     N
    N   1.0     0.839952     0.656755     0.662476  Biso 1.000000     N
   Zn   1.0     0.486204     0.314764     0.845646  Biso 1.000000    Zn
   Zn   1.0     0.985455     0.314766     0.845265  Biso 1.000000    Zn
   Zn   1.0     0.319144     0.531333     0.685631  Biso 1.000000    Zn
   Zn   1.0     0.819583     0.531244     0.685058  Biso 1.000000    Zn
   Zn   1.0     0.152984     0.154523     0.469165  Biso 1.000000    Zn
   Zn   1.0     0.652202     0.154448     0.468662  Biso 1.000000    Zn
   Zn   1.0     0.235372     0.685172     0.154558  Biso 1.000000    Zn
   Zn   1.0     0.735902     0.685742     0.154267  Biso 1.000000    Zn
   Zn   1.0     0.069253     0.468166     0.314206  Biso 1.000000    Zn
   Zn   1.0     0.570043     0.469477     0.314922  Biso 1.000000    Zn
   Zn   1.0     0.402592     0.845412     0.531075  Biso 1.000000    Zn
   Zn   1.0     0.903361     0.845254     0.530488  Biso 1.000000    Zn
