#======================================================================

# CRYSTAL DATA

#----------------------------------------------------------------------

data_VESTA_phase_1


_pd_phase_name                         MOF
_cell_length_a                         13.99100
_cell_length_b                         17.58600
_cell_length_c                         19.66800
_cell_angle_alpha                      70.32400
_cell_angle_beta                       69.20200
_cell_angle_gamma                      66.42100
_symmetry_space_group_name_H-M         "P 1"
_symmetry_Int_Tables_number            1

loop_
_symmetry_equiv_pos_as_xyz
   "x, y, z"

loop_
   _atom_site_label
   _atom_site_occupancy
   _atom_site_fract_x
   _atom_site_fract_y
   _atom_site_fract_z
   _atom_site_adp_type
   _atom_site_B_iso_or_equiv
   _atom_site_type_symbol
    H   1.0    -0.005532     0.880067     0.986597  Biso 1.000000     H
    H   1.0     0.607647     0.728614     0.950174  Biso 1.000000     H
    H   1.0     0.422356     0.831489     0.969211  Biso 1.000000     H
    H   1.0     0.293365     0.625909     0.095015  Biso 1.000000     H
    H   1.0     0.477083     0.522062     0.074958  Biso 1.000000     H
    H   1.0     0.624724     0.600444     0.855884  Biso 1.000000     H
    H   1.0     0.709378     0.555432     0.734970  Biso 1.000000     H
    H   1.0     0.984218     0.378211     0.816874  Biso 1.000000     H
    H   1.0     0.902819     0.423227     0.935903  Biso 1.000000     H
    H   1.0     0.857096     0.629062     0.891355  Biso 1.000000     H
    H   1.0    -0.050612     0.716151     0.905399  Biso 1.000000     H
    H   1.0     0.820659     0.657665     0.143079  Biso 1.000000     H
    H   1.0     0.725613     0.572784     0.130462  Biso 1.000000     H
    H   1.0     0.652465     0.407238     0.066743  Biso 1.000000     H
    H   1.0     0.783406     0.394870     0.069086  Biso 1.000000     H
    H   1.0     0.668217     0.451240     0.129994  Biso 1.000000     H
    H   1.0     0.861228     0.620167     0.513294  Biso 1.000000     H
    H   1.0     0.286135     0.770714     0.550778  Biso 1.000000     H
    H   1.0     0.223698     0.667654     0.531645  Biso 1.000000     H
    H   1.0     0.014699     0.872910     0.404796  Biso 1.000000     H
    H   1.0     0.073585     0.976902     0.424916  Biso 1.000000     H
    H   1.0     0.080402     0.899607     0.644561  Biso 1.000000     H
    H   1.0    -0.000292     0.944899     0.765341  Biso 1.000000     H
    H   1.0     0.178920     0.121597     0.682685  Biso 1.000000     H
    H   1.0     0.260901     0.076386     0.563735  Biso 1.000000     H
    H   1.0     0.377017     0.870600     0.608767  Biso 1.000000     H
    H   1.0     0.571031     0.783901     0.594635  Biso 1.000000     H
    H   1.0     0.620824     0.842827     0.356939  Biso 1.000000     H
    H   1.0     0.427652     0.927282     0.369627  Biso 1.000000     H
    H   1.0     0.123924     0.091887     0.433404  Biso 1.000000     H
    H   1.0     0.244786     0.104573     0.430620  Biso 1.000000     H
    H   1.0     0.246928     0.047817     0.370081  Biso 1.000000     H
    H   1.0     0.000000     0.119877     0.013460  Biso 1.000000     H
    H   1.0     0.392206     0.271351     0.049836  Biso 1.000000     H
    H   1.0     0.577479     0.168451     0.030810  Biso 1.000000     H
    H   1.0     0.706541     0.373995     0.905013  Biso 1.000000     H
    H   1.0     0.522839     0.477866     0.925061  Biso 1.000000     H
    H   1.0     0.375186     0.399524     0.144117  Biso 1.000000     H
    H   1.0     0.290539     0.444540     0.265030  Biso 1.000000     H
    H   1.0     0.015665     0.621722     0.183147  Biso 1.000000     H
    H   1.0     0.097058     0.576705     0.064119  Biso 1.000000     H
    H   1.0     0.142782     0.370902     0.108659  Biso 1.000000     H
    H   1.0     0.000000     0.283825     0.094621  Biso 1.000000     H
    H   1.0     0.179197     0.342299     0.856939  Biso 1.000000     H
    H   1.0     0.274264     0.427167     0.869552  Biso 1.000000     H
    H   1.0     0.347427     0.592714     0.933265  Biso 1.000000     H
    H   1.0     0.216480     0.605084     0.930931  Biso 1.000000     H
    H   1.0     0.331660     0.548717     0.870017  Biso 1.000000     H
    H   1.0     0.138678     0.379807     0.486716  Biso 1.000000     H
    H   1.0     0.713786     0.229266     0.449207  Biso 1.000000     H
    H   1.0     0.776224     0.332328     0.468338  Biso 1.000000     H
    H   1.0     0.985204     0.127075     0.595203  Biso 1.000000     H
    H   1.0     0.926321     0.023081     0.575083  Biso 1.000000     H
    H   1.0     0.919500     0.100354     0.355440  Biso 1.000000     H
    H   1.0     0.000000     0.055028     0.234675  Biso 1.000000     H
    H   1.0     0.820974     0.878338     0.317363  Biso 1.000000     H
    H   1.0     0.738987     0.923581     0.436300  Biso 1.000000     H
    H   1.0     0.622890     0.129395     0.391242  Biso 1.000000     H
    H   1.0     0.428873     0.216090     0.405378  Biso 1.000000     H
    H   1.0     0.379086     0.157154     0.643073  Biso 1.000000     H
    H   1.0     0.572261     0.072704     0.630383  Biso 1.000000     H
    H   1.0     0.875984     0.908105     0.566610  Biso 1.000000     H
    H   1.0     0.755119     0.895412     0.569410  Biso 1.000000     H
    H   1.0     0.752988     0.952184     0.629933  Biso 1.000000     H
    C   1.0     0.557116     0.617058     0.010518  Biso 1.000000     C
    C   1.0     0.539154     0.705113     0.980904  Biso 1.000000     C
    C   1.0     0.435517     0.763471     0.991762  Biso 1.000000     C
    C   1.0     0.346474     0.735065     0.033410  Biso 1.000000     C
    C   1.0     0.362644     0.647613     0.062775  Biso 1.000000     C
    C   1.0     0.466655     0.589672     0.051047  Biso 1.000000     C
    C   1.0     0.235653     0.797211     0.047408  Biso 1.000000     C
    C   1.0     0.756495     0.514608     0.905571  Biso 1.000000     C
    C   1.0     0.703735     0.551657     0.847650  Biso 1.000000     C
    C   1.0     0.750388     0.526694     0.779745  Biso 1.000000     C
    C   1.0     0.851346     0.463385     0.768648  Biso 1.000000     C
    C   1.0     0.905698     0.426950     0.825447  Biso 1.000000     C
    C   1.0     0.858812     0.452584     0.892658  Biso 1.000000     C
    C   1.0     0.902418     0.433857     0.697562  Biso 1.000000     C
    C   1.0     0.782959     0.595186     0.009671  Biso 1.000000     C
    C   1.0     0.848044     0.635310     0.946860  Biso 1.000000     C
    C   1.0     0.900530     0.683801     0.954125  Biso 1.000000     C
    C   1.0     0.890036     0.692660     0.024874  Biso 1.000000     C
    C   1.0     0.827991     0.650956     0.088230  Biso 1.000000     C
    C   1.0     0.775058     0.603290     0.080446  Biso 1.000000     C
    C   1.0     0.941562     0.748535     0.032072  Biso 1.000000     C
    C   1.0     0.700688     0.439306     0.073471  Biso 1.000000     C
    C   1.0     0.184147     0.882128     0.489951  Biso 1.000000     C
    C   1.0     0.225016     0.794106     0.519788  Biso 1.000000     C
    C   1.0     0.191094     0.735642     0.508907  Biso 1.000000     C
    C   1.0     0.115499     0.763915     0.466925  Biso 1.000000     C
    C   1.0     0.073250     0.851323     0.437304  Biso 1.000000     C
    C   1.0     0.107101     0.909343     0.449058  Biso 1.000000     C
    C   1.0     0.081041     0.701828     0.452939  Biso 1.000000     C
    C   1.0     0.175782    -0.014813     0.594491  Biso 1.000000     C
    C   1.0     0.102414     0.948368     0.652584  Biso 1.000000     C
    C   1.0     0.056562     0.973458     0.720425  Biso 1.000000     C
    C   1.0     0.083182     0.036682     0.731272  Biso 1.000000     C
    C   1.0     0.157648     0.072913     0.674306  Biso 1.000000     C
    C   1.0     0.203224     0.047173     0.607140  Biso 1.000000     C
    C   1.0     0.033968     0.066204     0.802355  Biso 1.000000     C
    C   1.0     0.386959     0.904633     0.490430  Biso 1.000000     C
    C   1.0     0.429696     0.864518     0.553241  Biso 1.000000     C
    C   1.0     0.538288     0.816308     0.545923  Biso 1.000000     C
    C   1.0     0.607334     0.807608     0.475157  Biso 1.000000     C
    C   1.0     0.566616     0.849400     0.411803  Biso 1.000000     C
    C   1.0     0.457885     0.896773     0.419624  Biso 1.000000     C
    C   1.0     0.722255     0.751832     0.467956  Biso 1.000000     C
    C   1.0     0.211156     0.059950     0.426538  Biso 1.000000     C
    C   1.0     0.442772     0.382892     0.989497  Biso 1.000000     C
    C   1.0     0.460711     0.294838     0.019107  Biso 1.000000     C
    C   1.0     0.564342     0.236470     0.008290  Biso 1.000000     C
    C   1.0     0.653391     0.264852     0.966587  Biso 1.000000     C
    C   1.0     0.637256     0.352307     0.937281  Biso 1.000000     C
    C   1.0     0.533248     0.410258     0.948969  Biso 1.000000     C
    C   1.0     0.764204     0.202685     0.952634  Biso 1.000000     C
    C   1.0     0.243395     0.485342     0.094443  Biso 1.000000     C
    C   1.0     0.296169     0.448304     0.152356  Biso 1.000000     C
    C   1.0     0.249513     0.473262     0.220264  Biso 1.000000     C
    C   1.0     0.148560     0.536574     0.231360  Biso 1.000000     C
    C   1.0     0.094185     0.572984     0.174573  Biso 1.000000     C
    C   1.0     0.141073     0.547358     0.107359  Biso 1.000000     C
    C   1.0     0.097484     0.566100     0.302447  Biso 1.000000     C
    C   1.0     0.216927     0.404768     0.990342  Biso 1.000000     C
    C   1.0     0.151826     0.364658     0.053154  Biso 1.000000     C
    C   1.0     0.099343     0.316161     0.045894  Biso 1.000000     C
    C   1.0     0.109810     0.307318     0.975144  Biso 1.000000     C
    C   1.0     0.171881     0.348999     0.911789  Biso 1.000000     C
    C   1.0     0.224811     0.396670     0.919568  Biso 1.000000     C
    C   1.0     0.058305     0.251423     0.967952  Biso 1.000000     C
    C   1.0     0.299198     0.560648     0.926540  Biso 1.000000     C
    C   1.0     0.815768     0.117855     0.510043  Biso 1.000000     C
    C   1.0     0.774902     0.205875     0.480199  Biso 1.000000     C
    C   1.0     0.808809     0.264341     0.491091  Biso 1.000000     C
    C   1.0     0.884426     0.236067     0.533056  Biso 1.000000     C
    C   1.0     0.926642     0.148663     0.562703  Biso 1.000000     C
    C   1.0     0.892810     0.090640     0.550939  Biso 1.000000     C
    C   1.0     0.918860     0.298153     0.547062  Biso 1.000000     C
    C   1.0     0.824117     0.000000     0.405526  Biso 1.000000     C
    C   1.0     0.897486     0.051587     0.347427  Biso 1.000000     C
    C   1.0     0.943353     0.026471     0.279598  Biso 1.000000     C
    C   1.0     0.916713     0.963253     0.268759  Biso 1.000000     C
    C   1.0     0.842258     0.927020     0.325736  Biso 1.000000     C
    C   1.0     0.796669     0.952786     0.392890  Biso 1.000000     C
    C   1.0     0.965948     0.933705     0.197690  Biso 1.000000     C
    C   1.0     0.612948     0.095355     0.509580  Biso 1.000000     C
    C   1.0     0.570211     0.135474     0.446769  Biso 1.000000     C
    C   1.0     0.461620     0.183688     0.454089  Biso 1.000000     C
    C   1.0     0.392568     0.192372     0.524857  Biso 1.000000     C
    C   1.0     0.433294     0.150591     0.588208  Biso 1.000000     C
    C   1.0     0.542025     0.103215     0.580386  Biso 1.000000     C
    C   1.0     0.277635     0.248118     0.532063  Biso 1.000000     C
    C   1.0     0.788751     0.940041     0.573479  Biso 1.000000     C
    O   1.0    -0.022867     0.923222     0.000000  Biso 1.000000     O
    O   1.0     0.226630     0.876596     0.018512  Biso 1.000000     O
    O   1.0     0.157826     0.768463     0.086900  Biso 1.000000     O
    O   1.0     0.856965     0.472673     0.643785  Biso 1.000000     O
    O   1.0    -0.009955     0.370608     0.695709  Biso 1.000000     O
    O   1.0    -0.009104     0.790283     0.974848  Biso 1.000000     O
    O   1.0     0.929643     0.750056     0.100609  Biso 1.000000     O
    O   1.0     0.916766     0.576905     0.483649  Biso 1.000000     O
    O   1.0     0.122589     0.622411     0.481952  Biso 1.000000     O
    O   1.0     0.000000     0.730746     0.413295  Biso 1.000000     O
    O   1.0     0.973627     0.027547     0.856108  Biso 1.000000     O
    O   1.0     0.056581     0.129187     0.804274  Biso 1.000000     O
    O   1.0     0.756254     0.709834     0.525217  Biso 1.000000     O
    O   1.0     0.780444     0.750545     0.399428  Biso 1.000000     O
    O   1.0     0.000000     0.076720    -0.016201  Biso 1.000000     O
    O   1.0     0.773192     0.123308     0.981550  Biso 1.000000     O
    O   1.0     0.842058     0.231399     0.913145  Biso 1.000000     O
    O   1.0     0.142935     0.527285     0.356225  Biso 1.000000     O
    O   1.0     0.000000     0.629353     0.304297  Biso 1.000000     O
    O   1.0     0.000000     0.209685     0.025180  Biso 1.000000     O
    O   1.0     0.070209     0.249901     0.899416  Biso 1.000000     O
    O   1.0     0.083149     0.423069     0.516362  Biso 1.000000     O
    O   1.0     0.877328     0.377570     0.518041  Biso 1.000000     O
    O   1.0    -0.013991     0.269232     0.586723  Biso 1.000000     O
    O   1.0     0.026302     0.972353     0.143940  Biso 1.000000     O
    O   1.0     0.943329     0.870725     0.195771  Biso 1.000000     O
    O   1.0     0.243632     0.290129     0.474805  Biso 1.000000     O
    O   1.0     0.219455     0.249414     0.600592  Biso 1.000000     O
   Si   1.0     0.698797     0.540393     0.000216  Biso 1.000000    Si
   Si   1.0     0.238212     0.959105     0.499974  Biso 1.000000    Si
   Si   1.0     0.301091     0.459561     0.999796  Biso 1.000000    Si
   Si   1.0     0.761692     0.040878     0.500035  Biso 1.000000    Si
   Zn   1.0     0.085962     0.960495     0.038451  Biso 1.000000    Zn
   Zn   1.0    -0.003037     0.821146     0.109673  Biso 1.000000    Zn
   Zn   1.0     0.085248     0.539072     0.461829  Biso 1.000000    Zn
   Zn   1.0     0.928059     0.678906     0.390374  Biso 1.000000    Zn
   Zn   1.0     0.913878     0.039438     0.961598  Biso 1.000000    Zn
   Zn   1.0     0.000000     0.178760     0.890370  Biso 1.000000    Zn
   Zn   1.0     0.914665     0.460901     0.538180  Biso 1.000000    Zn
   Zn   1.0     0.071845     0.321055     0.609631  Biso 1.000000    Zn
