#======================================================================

# CRYSTAL DATA

#----------------------------------------------------------------------

data_VESTA_phase_1


_pd_phase_name                         MOF
_cell_length_a                         18.41500
_cell_length_b                         22.25700
_cell_length_c                         12.19100
_cell_angle_alpha                      94.38700
_cell_angle_beta                       89.85800
_cell_angle_gamma                      90.10900
_symmetry_space_group_name_H-M         "P 1"
_symmetry_Int_Tables_number            1

loop_
_symmetry_equiv_pos_as_xyz
   "x, y, z"

loop_
   _atom_site_label
   _atom_site_occupancy
   _atom_site_fract_x
   _atom_site_fract_y
   _atom_site_fract_z
   _atom_site_adp_type
   _atom_site_B_iso_or_equiv
   _atom_site_type_symbol
    H   1.0     0.331160     0.469766     0.089397  Biso 1.000000     H
    H   1.0     0.331397     0.970769     0.089301  Biso 1.000000     H
    H   1.0     0.831153     0.469766     0.089397  Biso 1.000000     H
    H   1.0     0.831390     0.970769     0.089301  Biso 1.000000     H
    H   1.0     0.306603     0.033793     0.318785  Biso 1.000000     H
    H   1.0     0.305705     0.534748     0.317016  Biso 1.000000     H
    H   1.0     0.806596     0.033793     0.318785  Biso 1.000000     H
    H   1.0     0.805699     0.534748     0.317016  Biso 1.000000     H
    H   1.0     0.457358     0.495503     0.101767  Biso 1.000000     H
    H   1.0     0.457708     0.996280     0.102303  Biso 1.000000     H
    H   1.0     0.957351     0.495503     0.101767  Biso 1.000000     H
    H   1.0     0.957701     0.996280     0.102303  Biso 1.000000     H
    H   1.0     0.427200     0.116773     0.151780  Biso 1.000000     H
    H   1.0     0.427570     0.616273     0.150878  Biso 1.000000     H
    H   1.0     0.927193     0.116773     0.151780  Biso 1.000000     H
    H   1.0     0.927563     0.616272     0.150877  Biso 1.000000     H
    H   1.0     0.079865     0.279544     0.412112  Biso 1.000000     H
    H   1.0     0.080051     0.778836     0.408056  Biso 1.000000     H
    H   1.0     0.579858     0.279544     0.412112  Biso 1.000000     H
    H   1.0     0.580044     0.778836     0.408056  Biso 1.000000     H
    H   1.0     0.054974     0.215323     0.183910  Biso 1.000000     H
    H   1.0     0.055294     0.714952     0.179542  Biso 1.000000     H
    H   1.0     0.554968     0.215323     0.183910  Biso 1.000000     H
    H   1.0     0.555287     0.714952     0.179542  Biso 1.000000     H
    H   1.0     0.205615     0.253821     0.400496  Biso 1.000000     H
    H   1.0     0.205835     0.753048     0.396350  Biso 1.000000     H
    H   1.0     0.705608     0.253821     0.400495  Biso 1.000000     H
    H   1.0     0.705828     0.753048     0.396350  Biso 1.000000     H
    H   1.0     0.175432     0.133134     0.350036  Biso 1.000000     H
    H   1.0     0.175360     0.632416     0.345009  Biso 1.000000     H
    H   1.0     0.675426     0.133134     0.350036  Biso 1.000000     H
    H   1.0     0.675353     0.632416     0.345009  Biso 1.000000     H
    H   1.0     0.168601     0.029233     0.910669  Biso 1.000000     H
    H   1.0     0.168839     0.530236     0.910575  Biso 1.000000     H
    H   1.0     0.668594     0.029233     0.910669  Biso 1.000000     H
    H   1.0     0.668832     0.530236     0.910575  Biso 1.000000     H
    H   1.0     0.194294     0.465254     0.682956  Biso 1.000000     H
    H   1.0     0.193396     0.966209     0.681186  Biso 1.000000     H
    H   1.0     0.694288     0.465254     0.682956  Biso 1.000000     H
    H   1.0     0.693389     0.966209     0.681186  Biso 1.000000     H
    H   1.0     0.042290     0.003722     0.897668  Biso 1.000000     H
    H   1.0     0.042642     0.504498     0.898205  Biso 1.000000     H
    H   1.0     0.542284     0.003722     0.897668  Biso 1.000000     H
    H   1.0     0.542635     0.504498     0.898205  Biso 1.000000     H
    H   1.0     0.072430     0.383729     0.849094  Biso 1.000000     H
    H   1.0     0.072799     0.883229     0.848191  Biso 1.000000     H
    H   1.0     0.572424     0.383729     0.849094  Biso 1.000000     H
    H   1.0     0.572792     0.883229     0.848191  Biso 1.000000     H
    H   1.0     0.419948     0.221166     0.591914  Biso 1.000000     H
    H   1.0     0.420133     0.720458     0.587859  Biso 1.000000     H
    H   1.0     0.919941     0.221166     0.591914  Biso 1.000000     H
    H   1.0     0.920127     0.720458     0.587859  Biso 1.000000     H
    H   1.0     0.444704     0.285050     0.820429  Biso 1.000000     H
    H   1.0     0.445024     0.784679     0.816060  Biso 1.000000     H
    H   1.0     0.944697     0.285050     0.820428  Biso 1.000000     H
    H   1.0     0.945018     0.784679     0.816060  Biso 1.000000     H
    H   1.0     0.294164     0.246954     0.603621  Biso 1.000000     H
    H   1.0     0.294383     0.746181     0.599475  Biso 1.000000     H
    H   1.0     0.794157     0.246954     0.603620  Biso 1.000000     H
    H   1.0     0.794376     0.746181     0.599474  Biso 1.000000     H
    H   1.0     0.324638     0.367586     0.654961  Biso 1.000000     H
    H   1.0     0.324566     0.866868     0.649934  Biso 1.000000     H
    H   1.0     0.824632     0.367586     0.654961  Biso 1.000000     H
    H   1.0     0.824559     0.866868     0.649935  Biso 1.000000     H
    C   1.0     0.377344     0.076977     0.004453  Biso 1.000000     C
    C   1.0     0.378607     0.576914     0.002803  Biso 1.000000     C
    C   1.0     0.877337     0.076976     0.004452  Biso 1.000000     C
    C   1.0     0.878600     0.576914     0.002802  Biso 1.000000     C
    C   1.0     0.349528     0.482565     0.173678  Biso 1.000000     C
    C   1.0     0.349935     0.982706     0.173825  Biso 1.000000     C
    C   1.0     0.849520     0.482565     0.173678  Biso 1.000000     C
    C   1.0     0.849928     0.982706     0.173825  Biso 1.000000     C
    C   1.0     0.219750     0.018762     0.200162  Biso 1.000000     C
    C   1.0     0.219485     0.519043     0.197501  Biso 1.000000     C
    C   1.0     0.719743     0.018763     0.200162  Biso 1.000000     C
    C   1.0     0.719478     0.519044     0.197501  Biso 1.000000     C
    C   1.0     0.299308     0.030990     0.229154  Biso 1.000000     C
    C   1.0     0.298860     0.531347     0.227294  Biso 1.000000     C
    C   1.0     0.799301     0.030991     0.229154  Biso 1.000000     C
    C   1.0     0.798852     0.531348     0.227295  Biso 1.000000     C
    C   1.0     0.421984     0.018188     0.165263  Biso 1.000000     C
    C   1.0     0.421680     0.517764     0.164382  Biso 1.000000     C
    C   1.0     0.921977     0.018188     0.165263  Biso 1.000000     C
    C   1.0     0.921672     0.517763     0.164382  Biso 1.000000     C
    C   1.0     0.391844     0.078016     0.128824  Biso 1.000000     C
    C   1.0     0.392084     0.577684     0.127286  Biso 1.000000     C
    C   1.0     0.891837     0.078015     0.128824  Biso 1.000000     C
    C   1.0     0.892077     0.577684     0.127286  Biso 1.000000     C
    C   1.0     0.353566     0.426701     0.239084  Biso 1.000000     C
    C   1.0     0.353863     0.925977     0.236680  Biso 1.000000     C
    C   1.0     0.853559     0.426701     0.239084  Biso 1.000000     C
    C   1.0     0.853856     0.925977     0.236680  Biso 1.000000     C
    C   1.0     0.464878     0.029533     0.273114  Biso 1.000000     C
    C   1.0     0.464296     0.529296     0.272389  Biso 1.000000     C
    C   1.0     0.964871     0.029533     0.273113  Biso 1.000000     C
    C   1.0     0.964289     0.529296     0.272389  Biso 1.000000     C
    C   1.0     0.126066     0.172850     0.497872  Biso 1.000000     C
    C   1.0     0.126359     0.671855     0.493404  Biso 1.000000     C
    C   1.0     0.626059     0.172850     0.497872  Biso 1.000000     C
    C   1.0     0.626352     0.671855     0.493403  Biso 1.000000     C
    C   1.0     0.098489     0.267024     0.327740  Biso 1.000000     C
    C   1.0     0.098721     0.766460     0.323658  Biso 1.000000     C
    C   1.0     0.598482     0.267024     0.327740  Biso 1.000000     C
    C   1.0     0.598715     0.766460     0.323658  Biso 1.000000     C
    C   1.0     0.468399     0.230897     0.303454  Biso 1.000000     C
    C   1.0     0.468593     0.730726     0.298830  Biso 1.000000     C
    C   1.0     0.968393     0.230897     0.303454  Biso 1.000000     C
    C   1.0     0.968586     0.730726     0.298830  Biso 1.000000     C
    C   1.0     0.047775     0.218408     0.273631  Biso 1.000000     C
    C   1.0     0.047961     0.718028     0.269239  Biso 1.000000     C
    C   1.0     0.547768     0.218408     0.273631  Biso 1.000000     C
    C   1.0     0.547954     0.718028     0.269239  Biso 1.000000     C
    C   1.0     0.170429     0.231738     0.337140  Biso 1.000000     C
    C   1.0     0.170608     0.731099     0.332907  Biso 1.000000     C
    C   1.0     0.670422     0.231739     0.337140  Biso 1.000000     C
    C   1.0     0.670602     0.731099     0.332907  Biso 1.000000     C
    C   1.0     0.140139     0.171783     0.373533  Biso 1.000000     C
    C   1.0     0.140213     0.671083     0.368984  Biso 1.000000     C
    C   1.0     0.640132     0.171783     0.373533  Biso 1.000000     C
    C   1.0     0.640206     0.671083     0.368984  Biso 1.000000     C
    C   1.0     0.102591     0.323165     0.263054  Biso 1.000000     C
    C   1.0     0.102746     0.822722     0.259373  Biso 1.000000     C
    C   1.0     0.602584     0.323165     0.263053  Biso 1.000000     C
    C   1.0     0.602739     0.822722     0.259373  Biso 1.000000     C
    C   1.0     0.214421     0.220299     0.230210  Biso 1.000000     C
    C   1.0     0.214533     0.719932     0.225830  Biso 1.000000     C
    C   1.0     0.714414     0.220299     0.230210  Biso 1.000000     C
    C   1.0     0.714526     0.719932     0.225830  Biso 1.000000     C
    C   1.0     0.121393     0.423088     0.997169  Biso 1.000000     C
    C   1.0     0.122655     0.923026     0.995518  Biso 1.000000     C
    C   1.0     0.621386     0.423088     0.997169  Biso 1.000000     C
    C   1.0     0.622648     0.923025     0.995518  Biso 1.000000     C
    C   1.0     0.150064     0.017296     0.826146  Biso 1.000000     C
    C   1.0     0.150471     0.517437     0.826295  Biso 1.000000     C
    C   1.0     0.650057     0.017296     0.826145  Biso 1.000000     C
    C   1.0     0.650464     0.517437     0.826295  Biso 1.000000     C
    C   1.0     0.280514     0.480959     0.802471  Biso 1.000000     C
    C   1.0     0.280249     0.981239     0.799808  Biso 1.000000     C
    C   1.0     0.780508     0.480959     0.802471  Biso 1.000000     C
    C   1.0     0.780242     0.981239     0.799808  Biso 1.000000     C
    C   1.0     0.201140     0.468655     0.772677  Biso 1.000000     C
    C   1.0     0.200691     0.969011     0.770817  Biso 1.000000     C
    C   1.0     0.701133     0.468655     0.772678  Biso 1.000000     C
    C   1.0     0.700684     0.969012     0.770817  Biso 1.000000     C
    C   1.0     0.078320     0.482238     0.835590  Biso 1.000000     C
    C   1.0     0.078015     0.981814     0.834708  Biso 1.000000     C
    C   1.0     0.578313     0.482238     0.835590  Biso 1.000000     C
    C   1.0     0.578008     0.981814     0.834708  Biso 1.000000     C
    C   1.0     0.107915     0.422318     0.872685  Biso 1.000000     C
    C   1.0     0.108154     0.921987     0.871146  Biso 1.000000     C
    C   1.0     0.607909     0.422318     0.872685  Biso 1.000000     C
    C   1.0     0.608148     0.921987     0.871146  Biso 1.000000     C
    C   1.0     0.146135     0.074025     0.763290  Biso 1.000000     C
    C   1.0     0.146433     0.573301     0.760888  Biso 1.000000     C
    C   1.0     0.646128     0.074025     0.763290  Biso 1.000000     C
    C   1.0     0.646426     0.573301     0.760888  Biso 1.000000     C
    C   1.0     0.035704     0.470706     0.727582  Biso 1.000000     C
    C   1.0     0.035120     0.970469     0.726857  Biso 1.000000     C
    C   1.0     0.535697     0.470705     0.727582  Biso 1.000000     C
    C   1.0     0.535114     0.970469     0.726857  Biso 1.000000     C
    C   1.0     0.373640     0.328147     0.506567  Biso 1.000000     C
    C   1.0     0.373933     0.827152     0.502098  Biso 1.000000     C
    C   1.0     0.873633     0.328147     0.506567  Biso 1.000000     C
    C   1.0     0.873926     0.827152     0.502098  Biso 1.000000     C
    C   1.0     0.401278     0.233542     0.676312  Biso 1.000000     C
    C   1.0     0.401509     0.732978     0.672231  Biso 1.000000     C
    C   1.0     0.901271     0.233542     0.676312  Biso 1.000000     C
    C   1.0     0.901501     0.732978     0.672230  Biso 1.000000     C
    C   1.0     0.031405     0.269276     0.701141  Biso 1.000000     C
    C   1.0     0.031599     0.769104     0.696516  Biso 1.000000     C
    C   1.0     0.531399     0.269276     0.701141  Biso 1.000000     C
    C   1.0     0.531592     0.769104     0.696516  Biso 1.000000     C
    C   1.0     0.452038     0.281974     0.730732  Biso 1.000000     C
    C   1.0     0.452224     0.781594     0.726339  Biso 1.000000     C
    C   1.0     0.952031     0.281974     0.730732  Biso 1.000000     C
    C   1.0     0.952217     0.781593     0.726339  Biso 1.000000     C
    C   1.0     0.329390     0.268903     0.667064  Biso 1.000000     C
    C   1.0     0.329569     0.768264     0.662830  Biso 1.000000     C
    C   1.0     0.829384     0.268903     0.667064  Biso 1.000000     C
    C   1.0     0.829562     0.768264     0.662830  Biso 1.000000     C
    C   1.0     0.359786     0.328919     0.630986  Biso 1.000000     C
    C   1.0     0.359860     0.828219     0.626438  Biso 1.000000     C
    C   1.0     0.859779     0.328919     0.630986  Biso 1.000000     C
    C   1.0     0.859853     0.828219     0.626438  Biso 1.000000     C
    C   1.0     0.397252     0.177280     0.740598  Biso 1.000000     C
    C   1.0     0.397407     0.676837     0.736917  Biso 1.000000     C
    C   1.0     0.897246     0.177280     0.740598  Biso 1.000000     C
    C   1.0     0.897400     0.676837     0.736917  Biso 1.000000     C
    C   1.0     0.285466     0.280070     0.774141  Biso 1.000000     C
    C   1.0     0.285577     0.779703     0.769761  Biso 1.000000     C
    C   1.0     0.785459     0.280070     0.774141  Biso 1.000000     C
    C   1.0     0.785571     0.779703     0.769761  Biso 1.000000     C
    O   1.0     0.324066     0.087912     0.189095  Biso 1.000000     O
    O   1.0     0.323914     0.587878     0.186152  Biso 1.000000     O
    O   1.0     0.824059     0.087912     0.189095  Biso 1.000000     O
    O   1.0     0.823907     0.587879     0.186152  Biso 1.000000     O
    O   1.0     0.436805     0.069420     0.343058  Biso 1.000000     O
    O   1.0     0.435725     0.569147     0.341969  Biso 1.000000     O
    O   1.0     0.936798     0.069420     0.343058  Biso 1.000000     O
    O   1.0     0.935718     0.569148     0.341969  Biso 1.000000     O
    O   1.0     0.315466     0.093522     0.970932  Biso 1.000000     O
    O   1.0     0.317001     0.593467     0.968062  Biso 1.000000     O
    O   1.0     0.815459     0.093522     0.970932  Biso 1.000000     O
    O   1.0     0.816995     0.593467     0.968063  Biso 1.000000     O
    O   1.0     0.428712     0.060062     0.940443  Biso 1.000000     O
    O   1.0     0.430542     0.560324     0.939606  Biso 1.000000     O
    O   1.0     0.928705     0.060062     0.940443  Biso 1.000000     O
    O   1.0     0.930535     0.560324     0.939606  Biso 1.000000     O
    O   1.0     0.333907     0.376440     0.184862  Biso 1.000000     O
    O   1.0     0.334077     0.876335     0.180622  Biso 1.000000     O
    O   1.0     0.833902     0.376440     0.184861  Biso 1.000000     O
    O   1.0     0.834070     0.876335     0.180622  Biso 1.000000     O
    O   1.0     0.189055     0.046532     0.125148  Biso 1.000000     O
    O   1.0     0.189391     0.546323     0.121302  Biso 1.000000     O
    O   1.0     0.689048     0.046532     0.125148  Biso 1.000000     O
    O   1.0     0.689384     0.546323     0.121302  Biso 1.000000     O
    O   1.0     0.024836     0.505345     0.287064  Biso 1.000000     O
    O   1.0     0.025235     0.000000     0.287272  Biso 1.000000     O
    O   1.0     0.524829     0.505345     0.287064  Biso 1.000000     O
    O   1.0     0.525228     0.000000     0.287272  Biso 1.000000     O
    O   1.0     0.374294     0.432099     0.335732  Biso 1.000000     O
    O   1.0     0.374505     0.930000     0.333445  Biso 1.000000     O
    O   1.0     0.874288     0.432099     0.335731  Biso 1.000000     O
    O   1.0     0.874499     0.930000     0.333445  Biso 1.000000     O
    O   1.0     0.189829     0.479738     0.252386  Biso 1.000000     O
    O   1.0     0.190383     0.979058     0.254448  Biso 1.000000     O
    O   1.0     0.689823     0.479738     0.252386  Biso 1.000000     O
    O   1.0     0.690377     0.979058     0.254447  Biso 1.000000     O
    O   1.0     0.072210     0.161757     0.314310  Biso 1.000000     O
    O   1.0     0.072131     0.661341     0.309992  Biso 1.000000     O
    O   1.0     0.572204     0.161757     0.314309  Biso 1.000000     O
    O   1.0     0.572124     0.661341     0.309992  Biso 1.000000     O
    O   1.0     0.187167     0.180031     0.160245  Biso 1.000000     O
    O   1.0     0.187310     0.679705     0.155744  Biso 1.000000     O
    O   1.0     0.687160     0.180031     0.160245  Biso 1.000000     O
    O   1.0     0.687303     0.679705     0.155744  Biso 1.000000     O
    O   1.0     0.064120     0.156738     0.532527  Biso 1.000000     O
    O   1.0     0.064264     0.656287     0.528276  Biso 1.000000     O
    O   1.0     0.564113     0.156738     0.532527  Biso 1.000000     O
    O   1.0     0.564257     0.656286     0.528276  Biso 1.000000     O
    O   1.0     0.178102     0.189550     0.560544  Biso 1.000000     O
    O   1.0     0.178683     0.687804     0.556033  Biso 1.000000     O
    O   1.0     0.678096     0.189550     0.560544  Biso 1.000000     O
    O   1.0     0.678676     0.687804     0.556033  Biso 1.000000     O
    O   1.0     0.084523     0.373425     0.318756  Biso 1.000000     O
    O   1.0     0.084476     0.872760     0.315682  Biso 1.000000     O
    O   1.0     0.584516     0.373425     0.318756  Biso 1.000000     O
    O   1.0     0.584469     0.872760     0.315682  Biso 1.000000     O
    O   1.0     0.437478     0.203412     0.379056  Biso 1.000000     O
    O   1.0     0.437534     0.703329     0.374415  Biso 1.000000     O
    O   1.0     0.937471     0.203412     0.379055  Biso 1.000000     O
    O   1.0     0.937527     0.703329     0.374415  Biso 1.000000     O
    O   1.0     0.274938     0.244821     0.217022  Biso 1.000000     O
    O   1.0     0.274863     0.744717     0.212474  Biso 1.000000     O
    O   1.0     0.774931     0.244821     0.217021  Biso 1.000000     O
    O   1.0     0.774856     0.744717     0.212474  Biso 1.000000     O
    O   1.0     0.121749     0.317924     0.165552  Biso 1.000000     O
    O   1.0     0.121891     0.817831     0.161885  Biso 1.000000     O
    O   1.0     0.621743     0.317924     0.165552  Biso 1.000000     O
    O   1.0     0.621884     0.817831     0.161885  Biso 1.000000     O
    O   1.0     0.439501     0.270705     0.249383  Biso 1.000000     O
    O   1.0     0.439855     0.770575     0.244678  Biso 1.000000     O
    O   1.0     0.939494     0.270704     0.249383  Biso 1.000000     O
    O   1.0     0.939848     0.770575     0.244678  Biso 1.000000     O
    O   1.0     0.176086     0.412124     0.813820  Biso 1.000000     O
    O   1.0     0.175933     0.912090     0.810875  Biso 1.000000     O
    O   1.0     0.676079     0.412124     0.813820  Biso 1.000000     O
    O   1.0     0.675926     0.912090     0.810875  Biso 1.000000     O
    O   1.0     0.064274     0.430854     0.658002  Biso 1.000000     O
    O   1.0     0.063194     0.930582     0.656913  Biso 1.000000     O
    O   1.0     0.564268     0.430854     0.658002  Biso 1.000000     O
    O   1.0     0.563187     0.930582     0.656912  Biso 1.000000     O
    O   1.0     0.182999     0.406536     0.031909  Biso 1.000000     O
    O   1.0     0.184532     0.906480     0.029038  Biso 1.000000     O
    O   1.0     0.682993     0.406536     0.031909  Biso 1.000000     O
    O   1.0     0.684525     0.906480     0.029038  Biso 1.000000     O
    O   1.0     0.069458     0.439678     0.060365  Biso 1.000000     O
    O   1.0     0.071287     0.939940     0.059527  Biso 1.000000     O
    O   1.0     0.569451     0.439678     0.060365  Biso 1.000000     O
    O   1.0     0.571280     0.939940     0.059527  Biso 1.000000     O
    O   1.0     0.165921     0.123667     0.819348  Biso 1.000000     O
    O   1.0     0.166091     0.623562     0.815110  Biso 1.000000     O
    O   1.0     0.665915     0.123667     0.819348  Biso 1.000000     O
    O   1.0     0.666085     0.623562     0.815110  Biso 1.000000     O
    O   1.0     0.310610     0.453678     0.878668  Biso 1.000000     O
    O   1.0     0.310944     0.953470     0.874823  Biso 1.000000     O
    O   1.0     0.810603     0.453678     0.878667  Biso 1.000000     O
    O   1.0     0.810937     0.953470     0.874823  Biso 1.000000     O
    O   1.0     0.474763    -0.005172     0.712699  Biso 1.000000     O
    O   1.0     0.475164     0.494657     0.712907  Biso 1.000000     O
    O   1.0     0.974757    -0.005172     0.712699  Biso 1.000000     O
    O   1.0     0.975157     0.494657     0.712907  Biso 1.000000     O
    O   1.0     0.125493     0.070002     0.666526  Biso 1.000000     O
    O   1.0     0.125704     0.567903     0.664241  Biso 1.000000     O
    O   1.0     0.625487     0.070002     0.666526  Biso 1.000000     O
    O   1.0     0.625697     0.567903     0.664241  Biso 1.000000     O
    O   1.0     0.309615     0.020944     0.745523  Biso 1.000000     O
    O   1.0     0.310169     0.520265     0.747587  Biso 1.000000     O
    O   1.0     0.809608     0.020944     0.745523  Biso 1.000000     O
    O   1.0     0.810163     0.520265     0.747586  Biso 1.000000     O
    O   1.0     0.427867     0.338661     0.689979  Biso 1.000000     O
    O   1.0     0.427788     0.838245     0.685661  Biso 1.000000     O
    O   1.0     0.927861     0.338661     0.689979  Biso 1.000000     O
    O   1.0     0.927781     0.838245     0.685661  Biso 1.000000     O
    O   1.0     0.312689     0.320296     0.844227  Biso 1.000000     O
    O   1.0     0.312832     0.819971     0.839726  Biso 1.000000     O
    O   1.0     0.812682     0.320296     0.844227  Biso 1.000000     O
    O   1.0     0.812825     0.819971     0.839726  Biso 1.000000     O
    O   1.0     0.435734     0.343715     0.471695  Biso 1.000000     O
    O   1.0     0.435879     0.843264     0.467443  Biso 1.000000     O
    O   1.0     0.935728     0.343715     0.471695  Biso 1.000000     O
    O   1.0     0.935872     0.843264     0.467443  Biso 1.000000     O
    O   1.0     0.321315     0.312198     0.443937  Biso 1.000000     O
    O   1.0     0.321896     0.810452     0.439427  Biso 1.000000     O
    O   1.0     0.821309     0.312197     0.443937  Biso 1.000000     O
    O   1.0     0.821889     0.810452     0.439427  Biso 1.000000     O
    O   1.0     0.415522     0.127242     0.684288  Biso 1.000000     O
    O   1.0     0.415476     0.626577     0.681215  Biso 1.000000     O
    O   1.0     0.915515     0.127242     0.684288  Biso 1.000000     O
    O   1.0     0.915470     0.626577     0.681215  Biso 1.000000     O
    O   1.0     0.062464     0.296673     0.625555  Biso 1.000000     O
    O   1.0     0.062520     0.796590     0.620916  Biso 1.000000     O
    O   1.0     0.562457     0.296673     0.625555  Biso 1.000000     O
    O   1.0     0.562514     0.796590     0.620916  Biso 1.000000     O
    O   1.0     0.225135     0.255285     0.787497  Biso 1.000000     O
    O   1.0     0.225061     0.755181     0.782949  Biso 1.000000     O
    O   1.0     0.725129     0.255285     0.787497  Biso 1.000000     O
    O   1.0     0.725054     0.755181     0.782949  Biso 1.000000     O
    O   1.0     0.378107     0.182171     0.838085  Biso 1.000000     O
    O   1.0     0.378250     0.682079     0.834419  Biso 1.000000     O
    O   1.0     0.878100     0.182171     0.838085  Biso 1.000000     O
    O   1.0     0.878243     0.682079     0.834419  Biso 1.000000     O
    O   1.0     0.060143     0.229427     0.755292  Biso 1.000000     O
    O   1.0     0.060498     0.729298     0.750589  Biso 1.000000     O
    O   1.0     0.560137     0.229427     0.755292  Biso 1.000000     O
    O   1.0     0.560491     0.729298     0.750588  Biso 1.000000     O
   Zn   1.0     0.406388     0.059874     0.777890  Biso 1.000000    Zn
   Zn   1.0     0.406668     0.559998     0.777317  Biso 1.000000    Zn
   Zn   1.0     0.906381     0.059874     0.777890  Biso 1.000000    Zn
   Zn   1.0     0.906661     0.559998     0.777316  Biso 1.000000    Zn
   Zn   1.0     0.242846     0.119892     0.078793  Biso 1.000000    Zn
   Zn   1.0     0.243336     0.619676     0.074475  Biso 1.000000    Zn
   Zn   1.0     0.742839     0.119892     0.078793  Biso 1.000000    Zn
   Zn   1.0     0.743329     0.619676     0.074475  Biso 1.000000    Zn
   Zn   1.0     0.156458     0.190055     0.723001  Biso 1.000000    Zn
   Zn   1.0     0.156619     0.689758     0.718539  Biso 1.000000    Zn
   Zn   1.0     0.656451     0.190055     0.723001  Biso 1.000000    Zn
   Zn   1.0     0.656612     0.689758     0.718539  Biso 1.000000    Zn
   Zn   1.0     0.490714     0.130230     0.425863  Biso 1.000000    Zn
   Zn   1.0     0.490598     0.630232     0.421842  Biso 1.000000    Zn
   Zn   1.0     0.990707     0.130230     0.425863  Biso 1.000000    Zn
   Zn   1.0     0.990591     0.630232     0.421842  Biso 1.000000    Zn
   Zn   1.0     0.093332     0.440004     0.222654  Biso 1.000000    Zn
   Zn   1.0     0.093610     0.940128     0.222081  Biso 1.000000    Zn
   Zn   1.0     0.593325     0.440004     0.222654  Biso 1.000000    Zn
   Zn   1.0     0.593604     0.940128     0.222081  Biso 1.000000    Zn
   Zn   1.0     0.256663     0.380326     0.925495  Biso 1.000000    Zn
   Zn   1.0     0.257153     0.880110     0.921177  Biso 1.000000    Zn
   Zn   1.0     0.756657     0.380326     0.925495  Biso 1.000000    Zn
   Zn   1.0     0.757146     0.880110     0.921177  Biso 1.000000    Zn
   Zn   1.0     0.343380     0.310244     0.281432  Biso 1.000000    Zn
   Zn   1.0     0.343541     0.809947     0.276970  Biso 1.000000    Zn
   Zn   1.0     0.843373     0.310244     0.281432  Biso 1.000000    Zn
   Zn   1.0     0.843534     0.809947     0.276970  Biso 1.000000    Zn
   Zn   1.0     0.009401     0.369770     0.578129  Biso 1.000000    Zn
   Zn   1.0     0.009285     0.869772     0.574108  Biso 1.000000    Zn
   Zn   1.0     0.509394     0.369770     0.578129  Biso 1.000000    Zn
   Zn   1.0     0.509278     0.869772     0.574108  Biso 1.000000    Zn
