#======================================================================

# CRYSTAL DATA

#----------------------------------------------------------------------

data_VESTA_phase_1


_pd_phase_name                         MOF
_cell_length_a                         13.21600
_cell_length_b                         18.38100
_cell_length_c                         17.29900
_cell_angle_alpha                      90.00200
_cell_angle_beta                       98.21000
_cell_angle_gamma                      89.99600
_symmetry_space_group_name_H-M         "P 1"
_symmetry_Int_Tables_number            1

loop_
_symmetry_equiv_pos_as_xyz
   "x, y, z"

loop_
   _atom_site_label
   _atom_site_occupancy
   _atom_site_fract_x
   _atom_site_fract_y
   _atom_site_fract_z
   _atom_site_adp_type
   _atom_site_B_iso_or_equiv
   _atom_site_type_symbol
    H   1.0     0.321713     0.557210     0.225753  Biso 1.000000     H
    H   1.0     0.822141     0.557344     0.225361  Biso 1.000000     H
    H   1.0     0.375242     0.553374     0.097725  Biso 1.000000     H
    H   1.0     0.875375     0.553576     0.097246  Biso 1.000000     H
    H   1.0     0.086984     0.447998     0.011654  Biso 1.000000     H
    H   1.0     0.587149     0.448034     0.011456  Biso 1.000000     H
    H   1.0     0.044150     0.456389     0.145714  Biso 1.000000     H
    H   1.0     0.544584     0.456373     0.145639  Biso 1.000000     H
    H   1.0     0.241952     0.402566     0.397437  Biso 1.000000     H
    H   1.0     0.742029     0.402641     0.397444  Biso 1.000000     H
    H   1.0     0.407290     0.388464     0.482230  Biso 1.000000     H
    H   1.0     0.907306     0.388500     0.482410  Biso 1.000000     H
    H   1.0     0.451341     0.620913     0.459831  Biso 1.000000     H
    H   1.0     0.951548     0.620941     0.459982  Biso 1.000000     H
    H   1.0     0.283449     0.625319     0.377480  Biso 1.000000     H
    H   1.0     0.783684     0.625371     0.377475  Biso 1.000000     H
    H   1.0     0.298939     0.364241     0.157177  Biso 1.000000     H
    H   1.0     0.798492     0.363993     0.157211  Biso 1.000000     H
    H   1.0     0.342759     0.251527     0.377079  Biso 1.000000     H
    H   1.0     0.842274     0.251270     0.377107  Biso 1.000000     H
    H   1.0     0.177558     0.186928     0.340097  Biso 1.000000     H
    H   1.0     0.677109     0.186638     0.340083  Biso 1.000000     H
    H   1.0     0.134940     0.297720     0.119142  Biso 1.000000     H
    H   1.0     0.634517     0.297448     0.119141  Biso 1.000000     H
    H   1.0     0.177881     0.057358     0.274639  Biso 1.000000     H
    H   1.0     0.678310     0.057224     0.274247  Biso 1.000000     H
    H   1.0     0.124648     0.053583     0.402753  Biso 1.000000     H
    H   1.0     0.624780     0.053380     0.402273  Biso 1.000000     H
    H   1.0     0.412891     0.948025     0.488528  Biso 1.000000     H
    H   1.0     0.913056     0.947991     0.488331  Biso 1.000000     H
    H   1.0     0.455457     0.956375     0.354347  Biso 1.000000     H
    H   1.0     0.955892     0.956392     0.354274  Biso 1.000000     H
    H   1.0     0.258025     0.902656     0.102572  Biso 1.000000     H
    H   1.0     0.758102     0.902582     0.102579  Biso 1.000000     H
    H   1.0     0.092756     0.888502     0.017603  Biso 1.000000     H
    H   1.0     0.592773     0.888466     0.017785  Biso 1.000000     H
    H   1.0     0.048469     0.120949     0.039984  Biso 1.000000     H
    H   1.0     0.548676     0.120922     0.040135  Biso 1.000000     H
    H   1.0     0.216330     0.125393     0.122496  Biso 1.000000     H
    H   1.0     0.716565     0.125342     0.122489  Biso 1.000000     H
    H   1.0     0.201512     0.863995     0.342772  Biso 1.000000     H
    H   1.0     0.701068     0.864245     0.342805  Biso 1.000000     H
    H   1.0     0.157784     0.751269     0.122872  Biso 1.000000     H
    H   1.0     0.657301     0.751527     0.122900  Biso 1.000000     H
    H   1.0     0.322959     0.686636     0.159909  Biso 1.000000     H
    H   1.0     0.822511     0.686925     0.159895  Biso 1.000000     H
    H   1.0     0.365497     0.797450     0.380855  Biso 1.000000     H
    H   1.0     0.865075     0.797721     0.380854  Biso 1.000000     H
    H   1.0     0.177900     0.442652     0.774631  Biso 1.000000     H
    H   1.0     0.678330     0.442786     0.774239  Biso 1.000000     H
    H   1.0     0.124665     0.446420     0.902747  Biso 1.000000     H
    H   1.0     0.624799     0.446623     0.902267  Biso 1.000000     H
    H   1.0     0.412883     0.551974     0.988534  Biso 1.000000     H
    H   1.0     0.913049     0.552008     0.988337  Biso 1.000000     H
    H   1.0     0.455450     0.543633     0.854352  Biso 1.000000     H
    H   1.0     0.955887     0.543616     0.854278  Biso 1.000000     H
    H   1.0     0.258015     0.597357     0.602546  Biso 1.000000     H
    H   1.0     0.758092     0.597432     0.602552  Biso 1.000000     H
    H   1.0     0.092740     0.611497     0.517577  Biso 1.000000     H
    H   1.0     0.592757     0.611533     0.517757  Biso 1.000000     H
    H   1.0     0.048497     0.379057     0.540008  Biso 1.000000     H
    H   1.0     0.548703     0.379085     0.540161  Biso 1.000000     H
    H   1.0     0.216359     0.374627     0.622517  Biso 1.000000     H
    H   1.0     0.716594     0.374679     0.622513  Biso 1.000000     H
    H   1.0     0.201548     0.636007     0.842773  Biso 1.000000     H
    H   1.0     0.701101     0.635758     0.842806  Biso 1.000000     H
    H   1.0     0.157768     0.748729     0.622876  Biso 1.000000     H
    H   1.0     0.657284     0.748471     0.622903  Biso 1.000000     H
    H   1.0     0.322932     0.813362     0.659901  Biso 1.000000     H
    H   1.0     0.822482     0.813072     0.659886  Biso 1.000000     H
    H   1.0     0.365522     0.702552     0.880843  Biso 1.000000     H
    H   1.0     0.865099     0.702282     0.880842  Biso 1.000000     H
    H   1.0     0.321732     0.942776     0.725745  Biso 1.000000     H
    H   1.0     0.822159     0.942643     0.725353  Biso 1.000000     H
    H   1.0     0.375259     0.946620     0.597718  Biso 1.000000     H
    H   1.0     0.875390     0.946418     0.597238  Biso 1.000000     H
    H   1.0     0.086977     0.052001     0.511660  Biso 1.000000     H
    H   1.0     0.587141     0.051966     0.511463  Biso 1.000000     H
    H   1.0     0.044145     0.043603     0.645719  Biso 1.000000     H
    H   1.0     0.544578     0.043619     0.645644  Biso 1.000000     H
    H   1.0     0.241939     0.097417     0.897415  Biso 1.000000     H
    H   1.0     0.742017     0.097343     0.897421  Biso 1.000000     H
    H   1.0     0.407270     0.111533     0.982207  Biso 1.000000     H
    H   1.0     0.907287     0.111497     0.982388  Biso 1.000000     H
    H   1.0     0.451372     0.879078     0.959851  Biso 1.000000     H
    H   1.0     0.951578     0.879051     0.960001  Biso 1.000000     H
    H   1.0     0.283480     0.874658     0.877500  Biso 1.000000     H
    H   1.0     0.783715     0.874606     0.877493  Biso 1.000000     H
    H   1.0     0.298970     0.135752     0.657180  Biso 1.000000     H
    H   1.0     0.798525     0.136001     0.657213  Biso 1.000000     H
    H   1.0     0.342737     0.248470     0.877086  Biso 1.000000     H
    H   1.0     0.842254     0.248727     0.877113  Biso 1.000000     H
    H   1.0     0.177528     0.313072     0.840089  Biso 1.000000     H
    H   1.0     0.677081     0.313362     0.840075  Biso 1.000000     H
    H   1.0     0.134965     0.202278     0.619130  Biso 1.000000     H
    H   1.0     0.634543     0.202549     0.619129  Biso 1.000000     H
    C   1.0     0.270150     0.534041     0.177189  Biso 1.000000     C
    C   1.0     0.770526     0.534134     0.176849  Biso 1.000000     C
    C   1.0     0.300305     0.531309     0.103471  Biso 1.000000     C
    C   1.0     0.800508     0.531444     0.103084  Biso 1.000000     C
    C   1.0     0.235422     0.501408     0.040110  Biso 1.000000     C
    C   1.0     0.735569     0.501500     0.039781  Biso 1.000000     C
    C   1.0     0.141326     0.473789     0.056523  Biso 1.000000     C
    C   1.0     0.641538     0.473838     0.056287  Biso 1.000000     C
    C   1.0     0.116008     0.478331     0.131493  Biso 1.000000     C
    C   1.0     0.616375     0.478342     0.131313  Biso 1.000000     C
    C   1.0     0.292314     0.449084     0.411629  Biso 1.000000     C
    C   1.0     0.792470     0.449111     0.411676  Biso 1.000000     C
    C   1.0     0.385455     0.442138     0.459381  Biso 1.000000     C
    C   1.0     0.885512     0.442155     0.459493  Biso 1.000000     C
    C   1.0     0.448753     0.503111     0.476394  Biso 1.000000     C
    C   1.0     0.948795     0.503131     0.476435  Biso 1.000000     C
    C   1.0     0.409651     0.570381     0.447072  Biso 1.000000     C
    C   1.0     0.909823     0.570436     0.447162  Biso 1.000000     C
    C   1.0     0.315558     0.573682     0.400111  Biso 1.000000     C
    C   1.0     0.815816     0.573756     0.400144  Biso 1.000000     C
    C   1.0     0.427104     0.351583     0.294353  Biso 1.000000     C
    C   1.0     0.926574     0.351383     0.294414  Biso 1.000000     C
    C   1.0     0.331636     0.312476     0.269764  Biso 1.000000     C
    C   1.0     0.831156     0.312228     0.269802  Biso 1.000000     C
    C   1.0     0.271799     0.325545     0.197263  Biso 1.000000     C
    C   1.0     0.771348     0.325288     0.197288  Biso 1.000000     C
    C   1.0     0.296973     0.261320     0.320506  Biso 1.000000     C
    C   1.0     0.796504     0.261055     0.320525  Biso 1.000000     C
    C   1.0     0.051977     0.195884     0.202694  Biso 1.000000     C
    C   1.0     0.551526     0.195612     0.202678  Biso 1.000000     C
    C   1.0     0.145881     0.237089     0.226588  Biso 1.000000     C
    C   1.0     0.645442     0.236804     0.226579  Biso 1.000000     C
    C   1.0     0.205292     0.224699     0.299459  Biso 1.000000     C
    C   1.0     0.704847     0.224414     0.299454  Biso 1.000000     C
    C   1.0     0.180406     0.288370     0.175942  Biso 1.000000     C
    C   1.0     0.679974     0.288096     0.175945  Biso 1.000000     C
    C   1.0     0.229500     0.034143     0.323148  Biso 1.000000     C
    C   1.0     0.729876     0.034050     0.322808  Biso 1.000000     C
    C   1.0     0.199517     0.031449     0.396912  Biso 1.000000     C
    C   1.0     0.699720     0.031313     0.396524  Biso 1.000000     C
    C   1.0     0.264460     0.001499     0.460211  Biso 1.000000     C
    C   1.0     0.764606     0.001407     0.459882  Biso 1.000000     C
    C   1.0     0.358500     0.973835     0.443701  Biso 1.000000     C
    C   1.0     0.858711     0.973786     0.443466  Biso 1.000000     C
    C   1.0     0.383663     0.978344     0.368676  Biso 1.000000     C
    C   1.0     0.884031     0.978334     0.368497  Biso 1.000000     C
    C   1.0     0.207578     0.949125     0.088329  Biso 1.000000     C
    C   1.0     0.707734     0.949099     0.088377  Biso 1.000000     C
    C   1.0     0.114540     0.942162     0.040511  Biso 1.000000     C
    C   1.0     0.614597     0.942145     0.040623  Biso 1.000000     C
    C   1.0     0.051242     0.003136     0.023554  Biso 1.000000     C
    C   1.0     0.551285     0.003117     0.023596  Biso 1.000000     C
    C   1.0     0.090202     0.070446     0.052816  Biso 1.000000     C
    C   1.0     0.590375     0.070392     0.052905  Biso 1.000000     C
    C   1.0     0.184207     0.073774     0.099835  Biso 1.000000     C
    C   1.0     0.684466     0.073701     0.099868  Biso 1.000000     C
    C   1.0     0.073456     0.851383     0.205564  Biso 1.000000     C
    C   1.0     0.572928     0.851584     0.205625  Biso 1.000000     C
    C   1.0     0.168876     0.812227     0.230181  Biso 1.000000     C
    C   1.0     0.668398     0.812476     0.230217  Biso 1.000000     C
    C   1.0     0.228671     0.825289     0.302699  Biso 1.000000     C
    C   1.0     0.728222     0.825546     0.302722  Biso 1.000000     C
    C   1.0     0.203544     0.761054     0.179458  Biso 1.000000     C
    C   1.0     0.703077     0.761320     0.179476  Biso 1.000000     C
    C   1.0     0.448515     0.695610     0.297322  Biso 1.000000     C
    C   1.0     0.948064     0.695882     0.297306  Biso 1.000000     C
    C   1.0     0.354597     0.736804     0.273415  Biso 1.000000     C
    C   1.0     0.854159     0.737090     0.273406  Biso 1.000000     C
    C   1.0     0.295207     0.724414     0.200536  Biso 1.000000     C
    C   1.0     0.794762     0.724698     0.200530  Biso 1.000000     C
    C   1.0     0.320050     0.788097     0.324048  Biso 1.000000     C
    C   1.0     0.819618     0.788371     0.324050  Biso 1.000000     C
    C   1.0     0.229513     0.465865     0.823143  Biso 1.000000     C
    C   1.0     0.729891     0.465957     0.822803  Biso 1.000000     C
    C   1.0     0.199530     0.468554     0.896908  Biso 1.000000     C
    C   1.0     0.699735     0.468690     0.896520  Biso 1.000000     C
    C   1.0     0.264467     0.498502     0.960210  Biso 1.000000     C
    C   1.0     0.764615     0.498594     0.959882  Biso 1.000000     C
    C   1.0     0.358497     0.526167     0.943704  Biso 1.000000     C
    C   1.0     0.858709     0.526215     0.943469  Biso 1.000000     C
    C   1.0     0.383660     0.521662     0.868679  Biso 1.000000     C
    C   1.0     0.884030     0.521672     0.868499  Biso 1.000000     C
    C   1.0     0.207574     0.550887     0.588314  Biso 1.000000     C
    C   1.0     0.707730     0.550914     0.588361  Biso 1.000000     C
    C   1.0     0.114533     0.557842     0.540495  Biso 1.000000     C
    C   1.0     0.614591     0.557859     0.540607  Biso 1.000000     C
    C   1.0     0.051249     0.496867     0.523553  Biso 1.000000     C
    C   1.0     0.551293     0.496886     0.523595  Biso 1.000000     C
    C   1.0     0.090222     0.429562     0.552828  Biso 1.000000     C
    C   1.0     0.590394     0.429617     0.552919  Biso 1.000000     C
    C   1.0     0.184227     0.426243     0.599847  Biso 1.000000     C
    C   1.0     0.684486     0.426317     0.599881  Biso 1.000000     C
    C   1.0     0.073466     0.648617     0.705571  Biso 1.000000     C
    C   1.0     0.572937     0.648415     0.705632  Biso 1.000000     C
    C   1.0     0.168884     0.687772     0.730182  Biso 1.000000     C
    C   1.0     0.668405     0.687523     0.730219  Biso 1.000000     C
    C   1.0     0.228692     0.674712     0.802696  Biso 1.000000     C
    C   1.0     0.728241     0.674455     0.802720  Biso 1.000000     C
    C   1.0     0.203537     0.738944     0.679458  Biso 1.000000     C
    C   1.0     0.703069     0.738678     0.679477  Biso 1.000000     C
    C   1.0     0.448515     0.804387     0.797308  Biso 1.000000     C
    C   1.0     0.948063     0.804115     0.797291  Biso 1.000000     C
    C   1.0     0.354599     0.763196     0.773405  Biso 1.000000     C
    C   1.0     0.854159     0.762910     0.773396  Biso 1.000000     C
    C   1.0     0.295195     0.775585     0.700530  Biso 1.000000     C
    C   1.0     0.794748     0.775301     0.700525  Biso 1.000000     C
    C   1.0     0.320066     0.711904     0.824039  Biso 1.000000     C
    C   1.0     0.819633     0.711630     0.824042  Biso 1.000000     C
    C   1.0     0.270165     0.965949     0.677184  Biso 1.000000     C
    C   1.0     0.770539     0.965856     0.676844  Biso 1.000000     C
    C   1.0     0.300319     0.968685     0.603467  Biso 1.000000     C
    C   1.0     0.800520     0.968550     0.603080  Biso 1.000000     C
    C   1.0     0.235430     0.998589     0.540109  Biso 1.000000     C
    C   1.0     0.735575     0.998497     0.539780  Biso 1.000000     C
    C   1.0     0.141324     0.026208     0.556525  Biso 1.000000     C
    C   1.0     0.641534     0.026159     0.556290  Biso 1.000000     C
    C   1.0     0.116007     0.021662     0.631495  Biso 1.000000     C
    C   1.0     0.616373     0.021651     0.631315  Biso 1.000000     C
    C   1.0     0.292309     0.050900     0.911615  Biso 1.000000     C
    C   1.0     0.792465     0.050875     0.911662  Biso 1.000000     C
    C   1.0     0.385446     0.057854     0.959368  Biso 1.000000     C
    C   1.0     0.885504     0.057838     0.959480  Biso 1.000000     C
    C   1.0     0.448760     0.996883     0.976393  Biso 1.000000     C
    C   1.0     0.948804     0.996864     0.976434  Biso 1.000000     C
    C   1.0     0.409671     0.929608     0.947083  Biso 1.000000     C
    C   1.0     0.909844     0.929554     0.947171  Biso 1.000000     C
    C   1.0     0.315579     0.926299     0.900122  Biso 1.000000     C
    C   1.0     0.815838     0.926226     0.900154  Biso 1.000000     C
    C   1.0     0.427111     0.148413     0.794361  Biso 1.000000     C
    C   1.0     0.926583     0.148614     0.794422  Biso 1.000000     C
    C   1.0     0.331640     0.187521     0.769768  Biso 1.000000     C
    C   1.0     0.831162     0.187769     0.769805  Biso 1.000000     C
    C   1.0     0.271817     0.174450     0.697263  Biso 1.000000     C
    C   1.0     0.771367     0.174708     0.697286  Biso 1.000000     C
    C   1.0     0.296961     0.238677     0.820509  Biso 1.000000     C
    C   1.0     0.796494     0.238942     0.820528  Biso 1.000000     C
    C   1.0     0.051976     0.304116     0.702679  Biso 1.000000     C
    C   1.0     0.551525     0.304388     0.702664  Biso 1.000000     C
    C   1.0     0.145880     0.262907     0.726579  Biso 1.000000     C
    C   1.0     0.645442     0.263193     0.726570  Biso 1.000000     C
    C   1.0     0.205277     0.275300     0.799454  Biso 1.000000     C
    C   1.0     0.704833     0.275584     0.799449  Biso 1.000000     C
    C   1.0     0.180421     0.211626     0.675934  Biso 1.000000     C
    C   1.0     0.679989     0.211901     0.675936  Biso 1.000000     C
    N   1.0     0.178731     0.508927     0.191341  Biso 1.000000     N
    N   1.0     0.679202     0.508939     0.191103  Biso 1.000000     N
    N   1.0     0.257845     0.513704     0.380792  Biso 1.000000     N
    N   1.0     0.758211     0.513750     0.380802  Biso 1.000000     N
    N   1.0     0.044530     0.430074     0.306970  Biso 1.000000     N
    N   1.0     0.545282     0.430144     0.306836  Biso 1.000000     N
    N   1.0     0.069288     0.380112     0.363238  Biso 1.000000     N
    N   1.0     0.569834     0.380257     0.363213  Biso 1.000000     N
    N   1.0     0.496095     0.330474     0.356344  Biso 1.000000     N
    N   1.0     0.995691     0.330246     0.356319  Biso 1.000000     N
    N   1.0     0.455941     0.413738     0.262097  Biso 1.000000     N
    N   1.0     0.955214     0.413643     0.262262  Biso 1.000000     N
    N   1.0     0.438993     0.112993     0.193334  Biso 1.000000     N
    N   1.0     0.939631     0.113158     0.193275  Biso 1.000000     N
    N   1.0     0.409700     0.161260     0.136030  Biso 1.000000     N
    N   1.0     0.910143     0.161514     0.136102  Biso 1.000000     N
    N   1.0     0.480054     0.213711     0.141069  Biso 1.000000     N
    N   1.0     0.980395     0.214038     0.141198  Biso 1.000000     N
    N   1.0     0.028441     0.132996     0.236306  Biso 1.000000     N
    N   1.0     0.527809     0.132827     0.236408  Biso 1.000000     N
    N   1.0     0.320828     0.008948     0.308891  Biso 1.000000     N
    N   1.0     0.821300     0.008937     0.308653  Biso 1.000000     N
    N   1.0     0.241820     0.013770     0.119192  Biso 1.000000     N
    N   1.0     0.742187     0.013725     0.119202  Biso 1.000000     N
    N   1.0     0.454744     0.930150     0.193144  Biso 1.000000     N
    N   1.0     0.955495     0.930080     0.193009  Biso 1.000000     N
    N   1.0     0.430201     0.880267     0.136760  Biso 1.000000     N
    N   1.0     0.930746     0.880122     0.136735  Biso 1.000000     N
    N   1.0     0.004347     0.830251     0.143654  Biso 1.000000     N
    N   1.0     0.503942     0.830479     0.143631  Biso 1.000000     N
    N   1.0     0.044807     0.913643     0.237720  Biso 1.000000     N
    N   1.0     0.544085     0.913741     0.237884  Biso 1.000000     N
    N   1.0     0.060414     0.613149     0.306729  Biso 1.000000     N
    N   1.0     0.561050     0.612984     0.306671  Biso 1.000000     N
    N   1.0     0.089898     0.661508     0.363902  Biso 1.000000     N
    N   1.0     0.590339     0.661252     0.363975  Biso 1.000000     N
    N   1.0     0.019642     0.714036     0.358803  Biso 1.000000     N
    N   1.0     0.519982     0.713709     0.358933  Biso 1.000000     N
    N   1.0     0.472236     0.632821     0.263593  Biso 1.000000     N
    N   1.0     0.971606     0.632990     0.263696  Biso 1.000000     N
    N   1.0     0.320836     0.491061     0.808889  Biso 1.000000     N
    N   1.0     0.821310     0.491073     0.808652  Biso 1.000000     N
    N   1.0     0.241832     0.486248     0.619189  Biso 1.000000     N
    N   1.0     0.742199     0.486294     0.619199  Biso 1.000000     N
    N   1.0     0.454758     0.569856     0.693154  Biso 1.000000     N
    N   1.0     0.955511     0.569926     0.693020  Biso 1.000000     N
    N   1.0     0.430206     0.619739     0.636774  Biso 1.000000     N
    N   1.0     0.930753     0.619885     0.636748  Biso 1.000000     N
    N   1.0     0.004349     0.669751     0.643665  Biso 1.000000     N
    N   1.0     0.503945     0.669522     0.643640  Biso 1.000000     N
    N   1.0     0.044826     0.586359     0.737726  Biso 1.000000     N
    N   1.0     0.544101     0.586262     0.737891  Biso 1.000000     N
    N   1.0     0.060412     0.886839     0.806712  Biso 1.000000     N
    N   1.0     0.561049     0.887006     0.806656  Biso 1.000000     N
    N   1.0     0.089898     0.838482     0.863885  Biso 1.000000     N
    N   1.0     0.590341     0.838736     0.863958  Biso 1.000000     N
    N   1.0     0.019647     0.785958     0.858785  Biso 1.000000     N
    N   1.0     0.519987     0.786285     0.858915  Biso 1.000000     N
    N   1.0     0.472233     0.867173     0.763580  Biso 1.000000     N
    N   1.0     0.971600     0.867004     0.763683  Biso 1.000000     N
    N   1.0     0.178740     0.991061     0.691339  Biso 1.000000     N
    N   1.0     0.679210     0.991049     0.691101  Biso 1.000000     N
    N   1.0     0.257856     0.986274     0.880790  Biso 1.000000     N
    N   1.0     0.758223     0.986229     0.880800  Biso 1.000000     N
    N   1.0     0.044545     0.069918     0.806980  Biso 1.000000     N
    N   1.0     0.545296     0.069848     0.806846  Biso 1.000000     N
    N   1.0     0.069293     0.119879     0.863252  Biso 1.000000     N
    N   1.0     0.569839     0.119734     0.863227  Biso 1.000000     N
    N   1.0     0.496097     0.169521     0.856354  Biso 1.000000     N
    N   1.0     0.995693     0.169749     0.856330  Biso 1.000000     N
    N   1.0     0.455955     0.086255     0.762106  Biso 1.000000     N
    N   1.0     0.955231     0.086352     0.762270  Biso 1.000000     N
    N   1.0     0.438990     0.387015     0.693321  Biso 1.000000     N
    N   1.0     0.939627     0.386849     0.693261  Biso 1.000000     N
    N   1.0     0.409700     0.338749     0.636014  Biso 1.000000     N
    N   1.0     0.910141     0.338494     0.636086  Biso 1.000000     N
    N   1.0     0.480056     0.286291     0.641054  Biso 1.000000     N
    N   1.0     0.980396     0.285964     0.641183  Biso 1.000000     N
    N   1.0     0.028436     0.367007     0.736292  Biso 1.000000     N
    N   1.0     0.527805     0.367176     0.736396  Biso 1.000000     N
   Zn   1.0     0.129299     0.518290     0.300022  Biso 1.000000    Zn
   Zn   1.0     0.630509     0.518269     0.299917  Biso 1.000000    Zn
   Zn   1.0     0.369524     0.018285     0.200079  Biso 1.000000    Zn
   Zn   1.0     0.870736     0.018306     0.199975  Biso 1.000000    Zn
   Zn   1.0     0.369534     0.481730     0.700078  Biso 1.000000    Zn
   Zn   1.0     0.870746     0.481710     0.699973  Biso 1.000000    Zn
   Zn   1.0     0.129309     0.981693     0.800020  Biso 1.000000    Zn
   Zn   1.0     0.630519     0.981714     0.799915  Biso 1.000000    Zn
