#======================================================================

# CRYSTAL DATA

#----------------------------------------------------------------------

data_VESTA_phase_1


_pd_phase_name                         MOF
_cell_length_a                         7.91100
_cell_length_b                         16.23300
_cell_length_c                         26.71200
_cell_angle_alpha                      90.00100
_cell_angle_beta                       95.30100
_cell_angle_gamma                      89.99800
_symmetry_space_group_name_H-M         "P 1"
_symmetry_Int_Tables_number            1

loop_
_symmetry_equiv_pos_as_xyz
   "x, y, z"

loop_
   _atom_site_label
   _atom_site_occupancy
   _atom_site_fract_x
   _atom_site_fract_y
   _atom_site_fract_z
   _atom_site_adp_type
   _atom_site_B_iso_or_equiv
   _atom_site_type_symbol
    H   1.0     0.262898     0.288159     0.821855  Biso 1.000000     H
    H   1.0     0.262896     0.788173     0.821857  Biso 1.000000     H
    H   1.0     0.760075     0.288232     0.822078  Biso 1.000000     H
    H   1.0     0.760071     0.788245     0.822080  Biso 1.000000     H
    H   1.0     0.253808     0.228766     0.867619  Biso 1.000000     H
    H   1.0     0.253813     0.728780     0.867621  Biso 1.000000     H
    H   1.0     0.750294     0.228565     0.867702  Biso 1.000000     H
    H   1.0     0.750293     0.728581     0.867705  Biso 1.000000     H
    H   1.0     0.267492     0.332588     0.617639  Biso 1.000000     H
    H   1.0     0.267484     0.832602     0.617640  Biso 1.000000     H
    H   1.0     0.769377     0.332069     0.617200  Biso 1.000000     H
    H   1.0     0.769382     0.832094     0.617211  Biso 1.000000     H
    H   1.0     0.018736     0.098131     0.619259  Biso 1.000000     H
    H   1.0     0.018742     0.598141     0.619260  Biso 1.000000     H
    H   1.0     0.516876     0.098628     0.619507  Biso 1.000000     H
    H   1.0     0.516894     0.598650     0.619511  Biso 1.000000     H
    H   1.0     0.408725     0.123246     0.528459  Biso 1.000000     H
    H   1.0     0.408749     0.623273     0.528463  Biso 1.000000     H
    H   1.0     0.910744     0.123010     0.528240  Biso 1.000000     H
    H   1.0     0.910750     0.623019     0.528240  Biso 1.000000     H
    H   1.0     0.239843     0.038251     0.677823  Biso 1.000000     H
    H   1.0     0.239839     0.538265     0.677825  Biso 1.000000     H
    H   1.0     0.736997     0.038165     0.678044  Biso 1.000000     H
    H   1.0     0.736996     0.538178     0.678045  Biso 1.000000     H
    H   1.0     0.249789     0.478673     0.632176  Biso 1.000000     H
    H   1.0     0.249778     0.978681     0.632177  Biso 1.000000     H
    H   1.0     0.746369     0.478747     0.632310  Biso 1.000000     H
    H   1.0     0.746362     0.978758     0.632310  Biso 1.000000     H
    H   1.0     0.230227     0.082309     0.882410  Biso 1.000000     H
    H   1.0     0.230217     0.582331     0.882398  Biso 1.000000     H
    H   1.0     0.732525     0.082509     0.882260  Biso 1.000000     H
    H   1.0     0.732510     0.582517     0.882260  Biso 1.000000     H
    H   1.0     0.482804     0.348900     0.880275  Biso 1.000000     H
    H   1.0     0.482823     0.848911     0.880277  Biso 1.000000     H
    H   1.0     0.981393     0.348093     0.880588  Biso 1.000000     H
    H   1.0     0.981382     0.848108     0.880590  Biso 1.000000     H
    H   1.0     0.089449     0.372947     0.971608  Biso 1.000000     H
    H   1.0     0.089433     0.872961     0.971610  Biso 1.000000     H
    H   1.0     0.590852     0.373688     0.971319  Biso 1.000000     H
    H   1.0     0.590873     0.873691     0.971321  Biso 1.000000     H
    H   1.0     0.239825     0.211746     0.177811  Biso 1.000000     H
    H   1.0     0.239821     0.711760     0.177810  Biso 1.000000     H
    H   1.0     0.736980     0.211813     0.178036  Biso 1.000000     H
    H   1.0     0.736974     0.711827     0.178035  Biso 1.000000     H
    H   1.0     0.249776     0.271341     0.132165  Biso 1.000000     H
    H   1.0     0.249769     0.771359     0.132166  Biso 1.000000     H
    H   1.0     0.746359     0.271253     0.132308  Biso 1.000000     H
    H   1.0     0.746356     0.771269     0.132309  Biso 1.000000     H
    H   1.0     0.230214     0.167666     0.382395  Biso 1.000000     H
    H   1.0     0.230234     0.667685     0.382405  Biso 1.000000     H
    H   1.0     0.732525     0.167493     0.382247  Biso 1.000000     H
    H   1.0     0.732527     0.667502     0.382247  Biso 1.000000     H
    H   1.0     0.482752     0.401104     0.380296  Biso 1.000000     H
    H   1.0     0.482750     0.901129     0.380300  Biso 1.000000     H
    H   1.0     0.981314     0.401934     0.380592  Biso 1.000000     H
    H   1.0     0.981300     0.901948     0.380594  Biso 1.000000     H
    H   1.0     0.089372     0.377074     0.471610  Biso 1.000000     H
    H   1.0     0.089360     0.877087     0.471612  Biso 1.000000     H
    H   1.0     0.590798     0.376299     0.471337  Biso 1.000000     H
    H   1.0     0.590802     0.876330     0.471341  Biso 1.000000     H
    H   1.0     0.262885     0.461858     0.321855  Biso 1.000000     H
    H   1.0     0.262882     0.961872     0.321857  Biso 1.000000     H
    H   1.0     0.760057     0.461790     0.322066  Biso 1.000000     H
    H   1.0     0.760052     0.961804     0.322068  Biso 1.000000     H
    H   1.0     0.253756     0.021251     0.367614  Biso 1.000000     H
    H   1.0     0.253744     0.521263     0.367613  Biso 1.000000     H
    H   1.0     0.750228     0.021444     0.367691  Biso 1.000000     H
    H   1.0     0.750220     0.521459     0.367689  Biso 1.000000     H
    H   1.0     0.267512     0.417423     0.117631  Biso 1.000000     H
    H   1.0     0.267494     0.917436     0.117633  Biso 1.000000     H
    H   1.0     0.769394     0.417907     0.117179  Biso 1.000000     H
    H   1.0     0.769408     0.917913     0.117188  Biso 1.000000     H
    H   1.0     0.018682     0.151857     0.119260  Biso 1.000000     H
    H   1.0     0.018674     0.651868     0.119258  Biso 1.000000     H
    H   1.0     0.516834     0.151313     0.119500  Biso 1.000000     H
    H   1.0     0.516835     0.651340     0.119493  Biso 1.000000     H
    H   1.0     0.408687     0.126689     0.028451  Biso 1.000000     H
    H   1.0     0.408684     0.626721     0.028444  Biso 1.000000     H
    H   1.0     0.910693     0.126976     0.028240  Biso 1.000000     H
    H   1.0     0.910685     0.626986     0.028239  Biso 1.000000     H
    C   1.0     0.032039     0.241400     0.526396  Biso 1.000000     C
    C   1.0     0.032034     0.741411     0.526397  Biso 1.000000     C
    C   1.0     0.531714     0.241174     0.526312  Biso 1.000000     C
    C   1.0     0.531729     0.741204     0.526320  Biso 1.000000     C
    C   1.0     0.187125     0.285298     0.598662  Biso 1.000000     C
    C   1.0     0.187124     0.785309     0.598662  Biso 1.000000     C
    C   1.0     0.688053     0.284972     0.598394  Biso 1.000000     C
    C   1.0     0.688073     0.784995     0.598402  Biso 1.000000     C
    C   1.0     0.152504     0.213820     0.625346  Biso 1.000000     C
    C   1.0     0.152503     0.713832     0.625347  Biso 1.000000     C
    C   1.0     0.652531     0.213797     0.625242  Biso 1.000000     C
    C   1.0     0.652539     0.713821     0.625250  Biso 1.000000     C
    C   1.0     0.051281     0.153969     0.599573  Biso 1.000000     C
    C   1.0     0.051282     0.653980     0.599574  Biso 1.000000     C
    C   1.0     0.550147     0.154179     0.599658  Biso 1.000000     C
    C   1.0     0.550162     0.654203     0.599663  Biso 1.000000     C
    C   1.0    -0.008989     0.167424     0.549723  Biso 1.000000     C
    C   1.0    -0.008989     0.667435     0.549724  Biso 1.000000     C
    C   1.0     0.489754     0.167504     0.549806  Biso 1.000000     C
    C   1.0     0.489773     0.667531     0.549812  Biso 1.000000     C
    C   1.0     0.224009     0.202817     0.679247  Biso 1.000000     C
    C   1.0     0.224012     0.702829     0.679247  Biso 1.000000     C
    C   1.0     0.724244     0.202745     0.679122  Biso 1.000000     C
    C   1.0     0.724249     0.702762     0.679130  Biso 1.000000     C
    C   1.0     0.467781     0.491608     0.973377  Biso 1.000000     C
    C   1.0     0.467792     0.991607     0.973385  Biso 1.000000     C
    C   1.0     0.968104     0.491330     0.973476  Biso 1.000000     C
    C   1.0     0.968097     0.991346     0.973477  Biso 1.000000     C
    C   1.0     0.311536     0.035254     0.901267  Biso 1.000000     C
    C   1.0     0.311519     0.535276     0.901258  Biso 1.000000     C
    C   1.0     0.812937     0.035226     0.901229  Biso 1.000000     C
    C   1.0     0.812934     0.535238     0.901228  Biso 1.000000     C
    C   1.0     0.347117     0.464049     0.874472  Biso 1.000000     C
    C   1.0     0.347125     0.964057     0.874478  Biso 1.000000     C
    C   1.0     0.847573     0.463773     0.874534  Biso 1.000000     C
    C   1.0     0.847575     0.963790     0.874534  Biso 1.000000     C
    C   1.0     0.449500     0.404477     0.900095  Biso 1.000000     C
    C   1.0     0.449514     0.904485     0.900099  Biso 1.000000     C
    C   1.0     0.948847     0.403921     0.900288  Biso 1.000000     C
    C   1.0     0.948838     0.903936     0.900290  Biso 1.000000     C
    C   1.0     0.509819     0.417898     0.949935  Biso 1.000000     C
    C   1.0     0.509834     0.917901     0.949939  Biso 1.000000     C
    C   1.0     0.000000     0.417365     0.950137  Biso 1.000000     C
    C   1.0     0.000000     0.917380     0.950139  Biso 1.000000     C
    C   1.0     0.275514     0.452829     0.820608  Biso 1.000000     C
    C   1.0     0.275519     0.952841     0.820614  Biso 1.000000     C
    C   1.0     0.775956     0.452792     0.820645  Biso 1.000000     C
    C   1.0     0.775959     0.952809     0.820646  Biso 1.000000     C
    C   1.0     0.467757     0.258375     0.473384  Biso 1.000000     C
    C   1.0     0.467776     0.758403     0.473390  Biso 1.000000     C
    C   1.0     0.968081     0.258682     0.473470  Biso 1.000000     C
    C   1.0     0.968078     0.758692     0.473471  Biso 1.000000     C
    C   1.0     0.311510     0.214718     0.401259  Biso 1.000000     C
    C   1.0     0.311519     0.714743     0.401268  Biso 1.000000     C
    C   1.0     0.812929     0.214775     0.401219  Biso 1.000000     C
    C   1.0     0.812917     0.714789     0.401221  Biso 1.000000     C
    C   1.0     0.347093     0.285952     0.374478  Biso 1.000000     C
    C   1.0     0.347101     0.785973     0.374485  Biso 1.000000     C
    C   1.0     0.847544     0.286245     0.374529  Biso 1.000000     C
    C   1.0     0.847542     0.786256     0.374529  Biso 1.000000     C
    C   1.0     0.449460     0.345521     0.400109  Biso 1.000000     C
    C   1.0     0.449464     0.845545     0.400114  Biso 1.000000     C
    C   1.0     0.948790     0.346100     0.400287  Biso 1.000000     C
    C   1.0     0.948781     0.846113     0.400289  Biso 1.000000     C
    C   1.0     0.509777     0.332091     0.449948  Biso 1.000000     C
    C   1.0     0.509786     0.832119     0.449953  Biso 1.000000     C
    C   1.0     0.000000     0.332653     0.450136  Biso 1.000000     C
    C   1.0     0.000000     0.832665     0.450138  Biso 1.000000     C
    C   1.0     0.275504     0.297178     0.320613  Biso 1.000000     C
    C   1.0     0.275503     0.797195     0.320619  Biso 1.000000     C
    C   1.0     0.775938     0.297227     0.320639  Biso 1.000000     C
    C   1.0     0.775934     0.797239     0.320640  Biso 1.000000     C
    C   1.0     0.032028     0.008593     0.026393  Biso 1.000000     C
    C   1.0     0.032029     0.508605     0.026391  Biso 1.000000     C
    C   1.0     0.531725     0.008769     0.026303  Biso 1.000000     C
    C   1.0     0.531706     0.508798     0.026295  Biso 1.000000     C
    C   1.0     0.187127     0.464711     0.098656  Biso 1.000000     C
    C   1.0     0.187110     0.964723     0.098658  Biso 1.000000     C
    C   1.0     0.688062     0.465004     0.098374  Biso 1.000000     C
    C   1.0     0.688070     0.965007     0.098383  Biso 1.000000     C
    C   1.0     0.152489     0.036174     0.125342  Biso 1.000000     C
    C   1.0     0.152484     0.536186     0.125341  Biso 1.000000     C
    C   1.0     0.652528     0.036152     0.125233  Biso 1.000000     C
    C   1.0     0.652514     0.536176     0.125225  Biso 1.000000     C
    C   1.0     0.051242     0.096020     0.099572  Biso 1.000000     C
    C   1.0     0.051238     0.596032     0.099570  Biso 1.000000     C
    C   1.0     0.550122     0.095764     0.099649  Biso 1.000000     C
    C   1.0     0.550116     0.595791     0.099642  Biso 1.000000     C
    C   1.0    -0.009026     0.082565     0.049722  Biso 1.000000     C
    C   1.0    -0.009029     0.582576     0.049720  Biso 1.000000     C
    C   1.0     0.489734     0.082436     0.049798  Biso 1.000000     C
    C   1.0     0.489725     0.582466     0.049791  Biso 1.000000     C
    C   1.0     0.224001     0.047183     0.179242  Biso 1.000000     C
    C   1.0     0.223990     0.547196     0.179241  Biso 1.000000     C
    C   1.0     0.724240     0.047217     0.179112  Biso 1.000000     C
    C   1.0     0.724231     0.547235     0.179105  Biso 1.000000     C
    N   1.0     0.129334     0.300005     0.550810  Biso 1.000000     N
    N   1.0     0.129319     0.800019     0.550812  Biso 1.000000     N
    N   1.0     0.630027     0.299583     0.550551  Biso 1.000000     N
    N   1.0     0.630039     0.799611     0.550560  Biso 1.000000     N
    N   1.0     0.369493     0.049956     0.949109  Biso 1.000000     N
    N   1.0     0.369479     0.549983     0.949100  Biso 1.000000     N
    N   1.0     0.870753     0.049921     0.949079  Biso 1.000000     N
    N   1.0     0.870756     0.549934     0.949078  Biso 1.000000     N
    N   1.0     0.369464     0.200004     0.449101  Biso 1.000000     N
    N   1.0     0.369490     0.700028     0.449108  Biso 1.000000     N
    N   1.0     0.870755     0.200076     0.449067  Biso 1.000000     N
    N   1.0     0.870751     0.700086     0.449068  Biso 1.000000     N
    N   1.0     0.129343     0.450003     0.050803  Biso 1.000000     N
    N   1.0     0.129318     0.950014     0.050806  Biso 1.000000     N
    N   1.0     0.630035     0.450392     0.050531  Biso 1.000000     N
    N   1.0     0.630049     0.950393     0.050539  Biso 1.000000     N
    O   1.0     0.206018     0.132188     0.699690  Biso 1.000000     O
    O   1.0     0.206010     0.632203     0.699691  Biso 1.000000     O
    O   1.0     0.703612     0.132506     0.699774  Biso 1.000000     O
    O   1.0     0.703609     0.632520     0.699777  Biso 1.000000     O
    O   1.0     0.296423     0.263722     0.701809  Biso 1.000000     O
    O   1.0     0.296411     0.763737     0.701810  Biso 1.000000     O
    O   1.0     0.799333     0.263196     0.701432  Biso 1.000000     O
    O   1.0     0.799327     0.763211     0.701445  Biso 1.000000     O
    O   1.0     0.237480     0.229583     0.831109  Biso 1.000000     O
    O   1.0     0.237476     0.729597     0.831111  Biso 1.000000     O
    O   1.0     0.734343     0.229600     0.831191  Biso 1.000000     O
    O   1.0     0.734338     0.729615     0.831193  Biso 1.000000     O
    O   1.0     0.296228     0.382502     0.800075  Biso 1.000000     O
    O   1.0     0.296226     0.882515     0.800078  Biso 1.000000     O
    O   1.0     0.793812     0.382153     0.800199  Biso 1.000000     O
    O   1.0     0.793802     0.882167     0.800202  Biso 1.000000     O
    O   1.0     0.200495     0.013202     0.798213  Biso 1.000000     O
    O   1.0     0.200485     0.513215     0.798205  Biso 1.000000     O
    O   1.0     0.703558     0.013712     0.798111  Biso 1.000000     O
    O   1.0     0.703559     0.513725     0.798110  Biso 1.000000     O
    O   1.0     0.265614     0.479647     0.668691  Biso 1.000000     O
    O   1.0     0.265609     0.979660     0.668692  Biso 1.000000     O
    O   1.0     0.762496     0.479590     0.668822  Biso 1.000000     O
    O   1.0     0.762492     0.979604     0.668823  Biso 1.000000     O
    O   1.0     0.296220     0.367505     0.300082  Biso 1.000000     O
    O   1.0     0.296222     0.867519     0.300084  Biso 1.000000     O
    O   1.0     0.793798     0.367865     0.300194  Biso 1.000000     O
    O   1.0     0.793793     0.867877     0.300196  Biso 1.000000     O
    O   1.0     0.200473     0.236795     0.298206  Biso 1.000000     O
    O   1.0     0.200482     0.736809     0.298213  Biso 1.000000     O
    O   1.0     0.703550     0.236294     0.298101  Biso 1.000000     O
    O   1.0     0.703546     0.736307     0.298102  Biso 1.000000     O
    O   1.0     0.265599     0.270364     0.168680  Biso 1.000000     O
    O   1.0     0.265594     0.770378     0.168681  Biso 1.000000     O
    O   1.0     0.762479     0.270403     0.168820  Biso 1.000000     O
    O   1.0     0.762475     0.770417     0.168821  Biso 1.000000     O
    O   1.0     0.205995     0.117814     0.199683  Biso 1.000000     O
    O   1.0     0.205996     0.617828     0.199681  Biso 1.000000     O
    O   1.0     0.703598     0.117463     0.199758  Biso 1.000000     O
    O   1.0     0.703592     0.617477     0.199755  Biso 1.000000     O
    O   1.0     0.296411     0.486294     0.201806  Biso 1.000000     O
    O   1.0     0.296397     0.986306     0.201808  Biso 1.000000     O
    O   1.0     0.799334     0.486788     0.201415  Biso 1.000000     O
    O   1.0     0.799329     0.986801     0.201428  Biso 1.000000     O
    O   1.0     0.237471     0.020425     0.331104  Biso 1.000000     O
    O   1.0     0.237466     0.520438     0.331103  Biso 1.000000     O
    O   1.0     0.734332     0.020411     0.331179  Biso 1.000000     O
    O   1.0     0.734327     0.520425     0.331177  Biso 1.000000     O
    K   1.0     0.471045     0.136720     0.775530  Biso 1.000000     K
    K   1.0     0.471041     0.636735     0.775531  Biso 1.000000     K
    K   1.0     0.970767     0.137396     0.775458  Biso 1.000000     K
    K   1.0     0.970763     0.637412     0.775460  Biso 1.000000     K
    K   1.0     0.029116     0.387370     0.724349  Biso 1.000000     K
    K   1.0     0.029115     0.887386     0.724353  Biso 1.000000     K
    K   1.0     0.528912     0.386718     0.724321  Biso 1.000000     K
    K   1.0     0.528908     0.886732     0.724323  Biso 1.000000     K
    K   1.0     0.029114     0.362627     0.224348  Biso 1.000000     K
    K   1.0     0.029113     0.862640     0.224352  Biso 1.000000     K
    K   1.0     0.528897     0.363286     0.224317  Biso 1.000000     K
    K   1.0     0.528893     0.863300     0.224319  Biso 1.000000     K
    K   1.0     0.471029     0.113282     0.275520  Biso 1.000000     K
    K   1.0     0.471025     0.613297     0.275519  Biso 1.000000     K
    K   1.0     0.970749     0.112603     0.275447  Biso 1.000000     K
    K   1.0     0.970746     0.612619     0.275445  Biso 1.000000     K
