#======================================================================

# CRYSTAL DATA

#----------------------------------------------------------------------

data_VESTA_phase_1


_pd_phase_name                         MOF
_cell_length_a                         20.78700
_cell_length_b                         21.00900
_cell_length_c                         17.88400
_cell_angle_alpha                      90.12600
_cell_angle_beta                       89.85100
_cell_angle_gamma                      89.83300
_symmetry_space_group_name_H-M         "P 1"
_symmetry_Int_Tables_number            1

loop_
_symmetry_equiv_pos_as_xyz
   "x, y, z"

loop_
   _atom_site_label
   _atom_site_occupancy
   _atom_site_fract_x
   _atom_site_fract_y
   _atom_site_fract_z
   _atom_site_adp_type
   _atom_site_B_iso_or_equiv
   _atom_site_type_symbol
    H   1.0     0.224354     0.354696     0.239894  Biso 1.000000     H
    H   1.0     0.227587     0.851959     0.240593  Biso 1.000000     H
    H   1.0     0.725902     0.355989     0.239284  Biso 1.000000     H
    H   1.0     0.729622     0.852249     0.241123  Biso 1.000000     H
    H   1.0     0.373634     0.249517     0.125365  Biso 1.000000     H
    H   1.0     0.376993     0.747933     0.124888  Biso 1.000000     H
    H   1.0     0.874331     0.248130     0.126773  Biso 1.000000     H
    H   1.0     0.876688     0.745911     0.124225  Biso 1.000000     H
    H   1.0     0.260750     0.394225     0.015534  Biso 1.000000     H
    H   1.0     0.264521     0.894054     0.016995  Biso 1.000000     H
    H   1.0     0.763429     0.393053     0.014566  Biso 1.000000     H
    H   1.0     0.764499     0.892384     0.016587  Biso 1.000000     H
    H   1.0     0.019122     0.141874     0.739383  Biso 1.000000     H
    H   1.0     0.021719     0.643165     0.739980  Biso 1.000000     H
    H   1.0     0.518905     0.147275     0.740588  Biso 1.000000     H
    H   1.0     0.522338     0.646779     0.738820  Biso 1.000000     H
    H   1.0     0.371873     0.253379     0.624834  Biso 1.000000     H
    H   1.0     0.373743     0.753004     0.625807  Biso 1.000000     H
    H   1.0     0.873260     0.249587     0.623576  Biso 1.000000     H
    H   1.0     0.875257     0.751143     0.625566  Biso 1.000000     H
    H   1.0     0.483981     0.106579     0.516199  Biso 1.000000     H
    H   1.0     0.484174     0.606093     0.515158  Biso 1.000000     H
    H   1.0     0.985729     0.103563     0.514111  Biso 1.000000     H
    H   1.0     0.984963     0.603282     0.515788  Biso 1.000000     H
    H   1.0     0.269856     0.604301     0.263501  Biso 1.000000     H
    H   1.0     0.270936     0.000000     0.264377  Biso 1.000000     H
    H   1.0     0.771745     0.603883     0.263407  Biso 1.000000     H
    H   1.0     0.771546     0.000000     0.265407  Biso 1.000000     H
    H   1.0     0.122465     0.497692     0.377891  Biso 1.000000     H
    H   1.0     0.124896     0.997168     0.380132  Biso 1.000000     H
    H   1.0     0.623434     0.498600     0.377887  Biso 1.000000     H
    H   1.0     0.623677     0.998348     0.380402  Biso 1.000000     H
    H   1.0     0.235107     0.144140     0.489105  Biso 1.000000     H
    H   1.0     0.235091     0.641687     0.488999  Biso 1.000000     H
    H   1.0     0.733872     0.145440     0.489216  Biso 1.000000     H
    H   1.0     0.736856     0.642143     0.488668  Biso 1.000000     H
    H   1.0     0.479585    -0.102254     0.765683  Biso 1.000000     H
    H   1.0     0.476071     0.396809     0.764008  Biso 1.000000     H
    H   1.0     0.978945    -0.105099     0.765021  Biso 1.000000     H
    H   1.0     0.976172     0.391085     0.763174  Biso 1.000000     H
    H   1.0     0.125525     0.001336     0.880705  Biso 1.000000     H
    H   1.0     0.123144     0.498496     0.876905  Biso 1.000000     H
    H   1.0     0.627036     0.003224     0.881035  Biso 1.000000     H
    H   1.0     0.624958     0.502142     0.877078  Biso 1.000000     H
    H   1.0     0.012219     0.353133     0.987824  Biso 1.000000     H
    H   1.0     0.014244     0.855014     0.989338  Biso 1.000000     H
    H   1.0     0.512555     0.358080     0.988365  Biso 1.000000     H
    H   1.0     0.515934     0.856623     0.989462  Biso 1.000000     H
    C   1.0     0.252481     0.343868     0.189920  Biso 1.000000     C
    C   1.0     0.255806     0.841692     0.190527  Biso 1.000000     C
    C   1.0     0.754105     0.344453     0.189584  Biso 1.000000     C
    C   1.0     0.757182     0.841348     0.190749  Biso 1.000000     C
    C   1.0     0.299842     0.296632     0.190874  Biso 1.000000     C
    C   1.0     0.303234     0.794552     0.190984  Biso 1.000000     C
    C   1.0     0.800967     0.296802     0.191378  Biso 1.000000     C
    C   1.0     0.804127     0.793734     0.190929  Biso 1.000000     C
    C   1.0     0.335749     0.285467     0.125979  Biso 1.000000     C
    C   1.0     0.339208     0.783982     0.126008  Biso 1.000000     C
    C   1.0     0.836870     0.284512     0.126761  Biso 1.000000     C
    C   1.0     0.839226     0.782286     0.125510  Biso 1.000000     C
    C   1.0     0.273107     0.366197     0.064681  Biso 1.000000     C
    C   1.0     0.276752     0.865447     0.065720  Biso 1.000000     C
    C   1.0     0.775322     0.365342     0.064115  Biso 1.000000     C
    C   1.0     0.776917     0.863958     0.065394  Biso 1.000000     C
    C   1.0     0.360636     0.312481     0.991758  Biso 1.000000     C
    C   1.0     0.364403     0.812246     0.992223  Biso 1.000000     C
    C   1.0     0.861815     0.309169     0.991925  Biso 1.000000     C
    C   1.0     0.862869     0.809683     0.990946  Biso 1.000000     C
    C   1.0     0.322424     0.321064     0.061948  Biso 1.000000     C
    C   1.0     0.326118     0.820360     0.062490  Biso 1.000000     C
    C   1.0     0.823989     0.319471     0.062109  Biso 1.000000     C
    C   1.0     0.825638     0.818252     0.061818  Biso 1.000000     C
    C   1.0     0.311215     0.258884     0.260374  Biso 1.000000     C
    C   1.0     0.314139     0.756188     0.260091  Biso 1.000000     C
    C   1.0     0.811444     0.259809     0.261569  Biso 1.000000     C
    C   1.0     0.815463     0.756025     0.260410  Biso 1.000000     C
    C   1.0     0.491281     0.158028     0.690438  Biso 1.000000     C
    C   1.0     0.494088     0.657620     0.689173  Biso 1.000000     C
    C   1.0     0.991842     0.153203     0.689153  Biso 1.000000     C
    C   1.0     0.993980     0.654338     0.690044  Biso 1.000000     C
    C   1.0     0.444383     0.205663     0.690975  Biso 1.000000     C
    C   1.0     0.447318     0.705444     0.690592  Biso 1.000000     C
    C   1.0     0.945043     0.200950     0.689871  Biso 1.000000     C
    C   1.0     0.947681     0.702594     0.691057  Biso 1.000000     C
    C   1.0     0.409250     0.216926     0.625848  Biso 1.000000     C
    C   1.0     0.411205     0.716617     0.626104  Biso 1.000000     C
    C   1.0     0.910506     0.213001     0.624470  Biso 1.000000     C
    C   1.0     0.912298     0.714345     0.626197  Biso 1.000000     C
    C   1.0     0.471475     0.135085     0.565137  Biso 1.000000     C
    C   1.0     0.472473     0.634626     0.564341  Biso 1.000000     C
    C   1.0     0.972980     0.131591     0.563347  Biso 1.000000     C
    C   1.0     0.973198     0.631841     0.564929  Biso 1.000000     C
    C   1.0     0.385182     0.189836     0.491620  Biso 1.000000     C
    C   1.0     0.385356     0.688947     0.492140  Biso 1.000000     C
    C   1.0     0.887699     0.187001     0.489408  Biso 1.000000     C
    C   1.0     0.887621     0.687333     0.491837  Biso 1.000000     C
    C   1.0     0.422696     0.180777     0.562002  Biso 1.000000     C
    C   1.0     0.423754     0.680408     0.562016  Biso 1.000000     C
    C   1.0     0.924415     0.177483     0.560254  Biso 1.000000     C
    C   1.0     0.925067     0.678158     0.562177  Biso 1.000000     C
    C   1.0     0.433184     0.243926     0.760292  Biso 1.000000     C
    C   1.0     0.437002     0.743514     0.760402  Biso 1.000000     C
    C   1.0     0.933334     0.238591     0.759599  Biso 1.000000     C
    C   1.0     0.937211     0.740583     0.760807  Biso 1.000000     C
    C   1.0     0.243390     0.093330     0.314583  Biso 1.000000     C
    C   1.0     0.242199     0.593005     0.313580  Biso 1.000000     C
    C   1.0     0.743467     0.093228     0.315402  Biso 1.000000     C
    C   1.0     0.743970     0.592880     0.313488  Biso 1.000000     C
    C   1.0     0.194966     0.545979     0.312230  Biso 1.000000     C
    C   1.0     0.197009     0.000000     0.313969  Biso 1.000000     C
    C   1.0     0.696521     0.546029     0.312260  Biso 1.000000     C
    C   1.0     0.696845     0.000000     0.314674  Biso 1.000000     C
    C   1.0     0.161955     0.033714     0.379209  Biso 1.000000     C
    C   1.0     0.159991     0.533791     0.377448  Biso 1.000000     C
    C   1.0     0.660963     0.034679     0.379552  Biso 1.000000     C
    C   1.0     0.661238     0.534412     0.377382  Biso 1.000000     C
    C   1.0     0.223128     0.115701     0.440062  Biso 1.000000     C
    C   1.0     0.222589     0.614039     0.439519  Biso 1.000000     C
    C   1.0     0.722080     0.116760     0.440310  Biso 1.000000     C
    C   1.0     0.724261     0.614450     0.439253  Biso 1.000000     C
    C   1.0     0.137850     0.060143     0.513878  Biso 1.000000     C
    C   1.0     0.136731     0.559025     0.512835  Biso 1.000000     C
    C   1.0     0.635484     0.062525     0.513704  Biso 1.000000     C
    C   1.0     0.637562     0.560475     0.512392  Biso 1.000000     C
    C   1.0     0.175050     0.069589     0.443230  Biso 1.000000     C
    C   1.0     0.173774     0.568635     0.442050  Biso 1.000000     C
    C   1.0     0.673524     0.071090     0.443348  Biso 1.000000     C
    C   1.0     0.675062     0.569457     0.441819  Biso 1.000000     C
    C   1.0     0.183242     0.509459     0.241834  Biso 1.000000     C
    C   1.0     0.186008     0.000000     0.244316  Biso 1.000000     C
    C   1.0     0.684958     0.509006     0.242173  Biso 1.000000     C
    C   1.0     0.686725     0.000000     0.245213  Biso 1.000000     C
    C   1.0     0.003979     0.402402     0.813025  Biso 1.000000     C
    C   1.0     0.006474     0.905897     0.815173  Biso 1.000000     C
    C   1.0     0.504167     0.407759     0.813747  Biso 1.000000     C
    C   1.0     0.507419     0.908396     0.815711  Biso 1.000000     C
    C   1.0     0.053161    -0.046524     0.814567  Biso 1.000000     C
    C   1.0     0.050645     0.449987     0.811691  Biso 1.000000     C
    C   1.0     0.554124    -0.044051     0.815134  Biso 1.000000     C
    C   1.0     0.551518     0.454673     0.812188  Biso 1.000000     C
    C   1.0     0.085927     0.462085     0.876552  Biso 1.000000     C
    C   1.0     0.088251     0.964994     0.879711  Biso 1.000000     C
    C   1.0     0.587238     0.466236     0.876846  Biso 1.000000     C
    C   1.0     0.589686     0.966960     0.880061  Biso 1.000000     C
    C   1.0     0.024360     0.381013     0.938472  Biso 1.000000     C
    C   1.0     0.026460     0.883378     0.940396  Biso 1.000000     C
    C   1.0     0.524825     0.385910     0.939020  Biso 1.000000     C
    C   1.0     0.528048     0.885175     0.940635  Biso 1.000000     C
    C   1.0     0.109593     0.436899     0.011541  Biso 1.000000     C
    C   1.0     0.112325     0.937689     0.014081  Biso 1.000000     C
    C   1.0     0.611851     0.439981     0.011277  Biso 1.000000     C
    C   1.0     0.614613     0.939009     0.014016  Biso 1.000000     C
    C   1.0     0.072701     0.426883     0.940946  Biso 1.000000     C
    C   1.0     0.074967     0.929033     0.943548  Biso 1.000000     C
    C   1.0     0.573951     0.430989     0.941191  Biso 1.000000     C
    C   1.0     0.576731     0.930686     0.943743  Biso 1.000000     C
    C   1.0     0.064174    -0.009040     0.744806  Biso 1.000000     C
    C   1.0     0.061453     0.487160     0.741697  Biso 1.000000     C
    C   1.0     0.564501    -0.005891     0.745752  Biso 1.000000     C
    C   1.0     0.562575     0.491567     0.742063  Biso 1.000000     C
    N   1.0     0.239150     0.377697     0.127747  Biso 1.000000     N
    N   1.0     0.242513     0.876087     0.128800  Biso 1.000000     N
    N   1.0     0.741419     0.377886     0.126955  Biso 1.000000     N
    N   1.0     0.743635     0.875483     0.128916  Biso 1.000000     N
    N   1.0     0.005781     0.119500     0.626821  Biso 1.000000     N
    N   1.0     0.006644     0.619878     0.627944  Biso 1.000000     N
    N   1.0     0.504834     0.123743     0.628443  Biso 1.000000     N
    N   1.0     0.506612     0.623128     0.627018  Biso 1.000000     N
    N   1.0     0.256315     0.127601     0.376650  Biso 1.000000     N
    N   1.0     0.255920     0.626125     0.376263  Biso 1.000000     N
    N   1.0     0.756045     0.127876     0.377243  Biso 1.000000     N
    N   1.0     0.757796     0.626147     0.376038  Biso 1.000000     N
    N   1.0     0.490868     0.374333     0.876220  Biso 1.000000     N
    N   1.0     0.494392     0.874010     0.877517  Biso 1.000000     N
    N   1.0     0.990993     0.368767     0.875437  Biso 1.000000     N
    N   1.0     0.993154     0.871840     0.877144  Biso 1.000000     N
    O   1.0     0.339100     0.336168     0.930771  Biso 1.000000     O
    O   1.0     0.344141     0.838427     0.932019  Biso 1.000000     O
    O   1.0     0.841103     0.333471     0.930866  Biso 1.000000     O
    O   1.0     0.842188     0.835842     0.931081  Biso 1.000000     O
    O   1.0     0.414082     0.282950     0.993951  Biso 1.000000     O
    O   1.0     0.416550     0.780482     0.993545  Biso 1.000000     O
    O   1.0     0.914022     0.277560     0.994017  Biso 1.000000     O
    O   1.0     0.914994     0.777671     0.991640  Biso 1.000000     O
    O   1.0     0.286170     0.277831     0.321935  Biso 1.000000     O
    O   1.0     0.288883     0.775130     0.321667  Biso 1.000000     O
    O   1.0     0.783700     0.277743     0.321815  Biso 1.000000     O
    O   1.0     0.789594     0.774824     0.321616  Biso 1.000000     O
    O   1.0     0.344941     0.208207     0.256966  Biso 1.000000     O
    O   1.0     0.347277     0.705257     0.256543  Biso 1.000000     O
    O   1.0     0.847313     0.210385     0.259768  Biso 1.000000     O
    O   1.0     0.849653     0.705647     0.257458  Biso 1.000000     O
    O   1.0     0.405696     0.164003     0.431088  Biso 1.000000     O
    O   1.0     0.406138     0.663729     0.431271  Biso 1.000000     O
    O   1.0     0.908041     0.161224     0.429056  Biso 1.000000     O
    O   1.0     0.908223     0.661350     0.431381  Biso 1.000000     O
    O   1.0     0.333284     0.222026     0.493245  Biso 1.000000     O
    O   1.0     0.332724     0.719734     0.494277  Biso 1.000000     O
    O   1.0     0.835978     0.219865     0.490825  Biso 1.000000     O
    O   1.0     0.835748     0.719494     0.493340  Biso 1.000000     O
    O   1.0     0.458224     0.224971     0.821723  Biso 1.000000     O
    O   1.0     0.463394     0.724912     0.821097  Biso 1.000000     O
    O   1.0     0.958213     0.219359     0.821014  Biso 1.000000     O
    O   1.0     0.963664     0.722102     0.821470  Biso 1.000000     O
    O   1.0     0.400056     0.294860     0.756983  Biso 1.000000     O
    O   1.0     0.402898     0.794001     0.758244  Biso 1.000000     O
    O   1.0     0.900013     0.289413     0.756626  Biso 1.000000     O
    O   1.0     0.902859     0.790939     0.758612  Biso 1.000000     O
    O   1.0     0.157845     0.085735     0.574375  Biso 1.000000     O
    O   1.0     0.156137     0.586073     0.572731  Biso 1.000000     O
    O   1.0     0.655669     0.088594     0.574100  Biso 1.000000     O
    O   1.0     0.657900     0.586150     0.572733  Biso 1.000000     O
    O   1.0     0.086175     0.027585     0.512245  Biso 1.000000     O
    O   1.0     0.085987     0.525114     0.512132  Biso 1.000000     O
    O   1.0     0.583643     0.030583     0.512310  Biso 1.000000     O
    O   1.0     0.585554     0.528552     0.510962  Biso 1.000000     O
    O   1.0     0.210272     0.527476     0.181297  Biso 1.000000     O
    O   1.0     0.213208     0.000000     0.183647  Biso 1.000000     O
    O   1.0     0.710988     0.527706     0.181253  Biso 1.000000     O
    O   1.0     0.713585     0.000000     0.184421  Biso 1.000000     O
    O   1.0     0.147255     0.460375     0.243688  Biso 1.000000     O
    O   1.0     0.150333     0.958330     0.246796  Biso 1.000000     O
    O   1.0     0.650329     0.459034     0.244435  Biso 1.000000     O
    O   1.0     0.652345     0.957172     0.247767  Biso 1.000000     O
    O   1.0     0.089021     0.411484     0.071988  Biso 1.000000     O
    O   1.0     0.091751     0.911562     0.074224  Biso 1.000000     O
    O   1.0     0.591585     0.414138     0.071723  Biso 1.000000     O
    O   1.0     0.593688     0.913743     0.074520  Biso 1.000000     O
    O   1.0     0.161074     0.469588     0.010216  Biso 1.000000     O
    O   1.0     0.164161     0.969653     0.012972  Biso 1.000000     O
    O   1.0     0.663698     0.471950     0.009618  Biso 1.000000     O
    O   1.0     0.667127     0.969794     0.012429  Biso 1.000000     O
    O   1.0     0.038896    -0.028757     0.683776  Biso 1.000000     O
    O   1.0     0.033892     0.469549     0.681416  Biso 1.000000     O
    O   1.0     0.539087    -0.025028     0.684602  Biso 1.000000     O
    O   1.0     0.536314     0.472625     0.681449  Biso 1.000000     O
    O   1.0     0.097320     0.041711     0.747047  Biso 1.000000     O
    O   1.0     0.097324     0.536347     0.743642  Biso 1.000000     O
    O   1.0     0.597330     0.045111     0.748631  Biso 1.000000     O
    O   1.0     0.597112     0.541613     0.744005  Biso 1.000000     O
   Zn   1.0     0.421857     0.305451     0.875326  Biso 1.000000    Zn
   Zn   1.0     0.425089     0.805325     0.875267  Biso 1.000000    Zn
   Zn   1.0     0.922048     0.299777     0.875003  Biso 1.000000    Zn
   Zn   1.0     0.924693     0.802549     0.875190  Biso 1.000000    Zn
   Zn   1.0     0.324803     0.197389     0.374951  Biso 1.000000    Zn
   Zn   1.0     0.325109     0.694823     0.375115  Biso 1.000000    Zn
   Zn   1.0     0.824964     0.197269     0.375079  Biso 1.000000    Zn
   Zn   1.0     0.827610     0.694587     0.375036  Biso 1.000000    Zn
   Zn   1.0     0.075142     0.050284     0.628374  Biso 1.000000    Zn
   Zn   1.0     0.074994     0.549780     0.628315  Biso 1.000000    Zn
   Zn   1.0     0.574990     0.055420     0.630760  Biso 1.000000    Zn
   Zn   1.0     0.575155     0.552888     0.627731  Biso 1.000000    Zn
   Zn   1.0     0.169610     0.447109     0.128022  Biso 1.000000    Zn
   Zn   1.0     0.172453     0.944682     0.130934  Biso 1.000000    Zn
   Zn   1.0     0.672313     0.447362     0.127738  Biso 1.000000    Zn
   Zn   1.0     0.674877     0.944901     0.131035  Biso 1.000000    Zn
