#======================================================================

# CRYSTAL DATA

#----------------------------------------------------------------------

data_VESTA_phase_1


_pd_phase_name                         MOF
_cell_length_a                         14.55500
_cell_length_b                         15.01200
_cell_length_c                         22.31400
_cell_angle_alpha                      107.65000
_cell_angle_beta                       107.06500
_cell_angle_gamma                      95.80200
_symmetry_space_group_name_H-M         "P 1"
_symmetry_Int_Tables_number            1

loop_
_symmetry_equiv_pos_as_xyz
   "x, y, z"

loop_
   _atom_site_label
   _atom_site_occupancy
   _atom_site_fract_x
   _atom_site_fract_y
   _atom_site_fract_z
   _atom_site_adp_type
   _atom_site_B_iso_or_equiv
   _atom_site_type_symbol
    H   1.0     0.512104     0.170365     0.335451  Biso 1.000000     H
    H   1.0     0.512108     0.170369     0.835458  Biso 1.000000     H
    H   1.0     0.512105     0.670362     0.335451  Biso 1.000000     H
    H   1.0     0.512110     0.670366     0.835458  Biso 1.000000     H
    H   1.0     0.000000     0.170363     0.335449  Biso 1.000000     H
    H   1.0     0.000000     0.170367     0.835456  Biso 1.000000     H
    H   1.0     0.000000     0.670360     0.335449  Biso 1.000000     H
    H   1.0     0.000000     0.670364     0.835456  Biso 1.000000     H
    H   1.0     0.071745     0.469514     0.231335  Biso 1.000000     H
    H   1.0     0.071749     0.469517     0.731342  Biso 1.000000     H
    H   1.0     0.071746     0.969511     0.231334  Biso 1.000000     H
    H   1.0     0.071750     0.969515     0.731342  Biso 1.000000     H
    H   1.0     0.571736     0.469522     0.231331  Biso 1.000000     H
    H   1.0     0.571740     0.469525     0.731338  Biso 1.000000     H
    H   1.0     0.571737     0.969519     0.231331  Biso 1.000000     H
    H   1.0     0.571741     0.969522     0.731338  Biso 1.000000     H
    H   1.0     0.323821     0.164937     0.335284  Biso 1.000000     H
    H   1.0     0.323826     0.164941     0.835291  Biso 1.000000     H
    H   1.0     0.323822     0.664935     0.335284  Biso 1.000000     H
    H   1.0     0.323827     0.664938     0.835291  Biso 1.000000     H
    H   1.0     0.823817     0.164943     0.335270  Biso 1.000000     H
    H   1.0     0.823821     0.164947     0.835277  Biso 1.000000     H
    H   1.0     0.823818     0.664941     0.335270  Biso 1.000000     H
    H   1.0     0.823822     0.664944     0.835277  Biso 1.000000     H
    H   1.0     0.159402     0.261579     0.231229  Biso 1.000000     H
    H   1.0     0.159406     0.261583     0.731236  Biso 1.000000     H
    H   1.0     0.159403     0.761576     0.231229  Biso 1.000000     H
    H   1.0     0.159408     0.761580     0.731236  Biso 1.000000     H
    H   1.0     0.659385     0.261585     0.231220  Biso 1.000000     H
    H   1.0     0.659390     0.261589     0.731227  Biso 1.000000     H
    H   1.0     0.659387     0.761582     0.231220  Biso 1.000000     H
    H   1.0     0.659391     0.761586     0.731227  Biso 1.000000     H
    H   1.0    -0.012061     0.329657     0.164561  Biso 1.000000     H
    H   1.0    -0.012056     0.329661     0.664568  Biso 1.000000     H
    H   1.0    -0.012060     0.829654     0.164561  Biso 1.000000     H
    H   1.0    -0.012055     0.829658     0.664568  Biso 1.000000     H
    H   1.0     0.487912     0.329655     0.164560  Biso 1.000000     H
    H   1.0     0.487917     0.329659     0.664567  Biso 1.000000     H
    H   1.0     0.487914     0.829652     0.164560  Biso 1.000000     H
    H   1.0     0.487918     0.829656     0.664567  Biso 1.000000     H
    H   1.0     0.428267     0.030496     0.268679  Biso 1.000000     H
    H   1.0     0.428272     0.030500     0.768686  Biso 1.000000     H
    H   1.0     0.428269     0.530493     0.268679  Biso 1.000000     H
    H   1.0     0.428273     0.530497     0.768686  Biso 1.000000     H
    H   1.0     0.928258     0.030504     0.268675  Biso 1.000000     H
    H   1.0     0.928263     0.030507     0.768683  Biso 1.000000     H
    H   1.0     0.928260     0.530501     0.268675  Biso 1.000000     H
    H   1.0     0.928264     0.530505     0.768683  Biso 1.000000     H
    H   1.0     0.176191     0.335072     0.164732  Biso 1.000000     H
    H   1.0     0.176195     0.335076     0.664739  Biso 1.000000     H
    H   1.0     0.176192     0.835069     0.164732  Biso 1.000000     H
    H   1.0     0.176196     0.835073     0.664739  Biso 1.000000     H
    H   1.0     0.676186     0.335078     0.164718  Biso 1.000000     H
    H   1.0     0.676190     0.335082     0.664725  Biso 1.000000     H
    H   1.0     0.676187     0.835076     0.164718  Biso 1.000000     H
    H   1.0     0.676192     0.835079     0.664725  Biso 1.000000     H
    H   1.0     0.340619     0.238435     0.268786  Biso 1.000000     H
    H   1.0     0.340624     0.238438     0.768793  Biso 1.000000     H
    H   1.0     0.340621     0.738432     0.268786  Biso 1.000000     H
    H   1.0     0.340625     0.738436     0.768793  Biso 1.000000     H
    H   1.0     0.840603     0.238441     0.268776  Biso 1.000000     H
    H   1.0     0.840607     0.238444     0.768783  Biso 1.000000     H
    H   1.0     0.840604     0.738438     0.268776  Biso 1.000000     H
    H   1.0     0.840609     0.738441     0.768783  Biso 1.000000     H
    H   1.0     0.274333     0.166240     0.000034  Biso 1.000000     H
    H   1.0     0.274336     0.166243     0.500041  Biso 1.000000     H
    H   1.0     0.274340     0.666244     0.000000  Biso 1.000000     H
    H   1.0     0.274336     0.666240     0.500041  Biso 1.000000     H
    H   1.0     0.774338     0.166250     0.000028  Biso 1.000000     H
    H   1.0     0.774339     0.166253     0.500034  Biso 1.000000     H
    H   1.0     0.774339     0.666247     0.000028  Biso 1.000000     H
    H   1.0     0.774340     0.666250     0.500034  Biso 1.000000     H
    H   1.0     0.225676     0.333771     0.499980  Biso 1.000000     H
    H   1.0     0.225673     0.333768    -0.000028  Biso 1.000000     H
    H   1.0     0.225679     0.833771     0.999986  Biso 1.000000     H
    H   1.0     0.225677     0.833768     0.499980  Biso 1.000000     H
    H   1.0     0.725677     0.333777    -0.000035  Biso 1.000000     H
    H   1.0     0.725679     0.333780     0.499973  Biso 1.000000     H
    H   1.0     0.725678     0.833774    -0.000035  Biso 1.000000     H
    H   1.0     0.725680     0.833778     0.499973  Biso 1.000000     H
    C   1.0     0.211452     0.035035     0.375170  Biso 1.000000     C
    C   1.0     0.211454     0.035037     0.875176  Biso 1.000000     C
    C   1.0     0.211452     0.535031     0.375170  Biso 1.000000     C
    C   1.0     0.211456     0.535035     0.875177  Biso 1.000000     C
    C   1.0     0.711451     0.035043     0.375163  Biso 1.000000     C
    C   1.0     0.711455     0.035046     0.875170  Biso 1.000000     C
    C   1.0     0.711453     0.535041     0.375163  Biso 1.000000     C
    C   1.0     0.711456     0.535043     0.875170  Biso 1.000000     C
    C   1.0     0.226793     0.016635     0.439308  Biso 1.000000     C
    C   1.0     0.226796     0.016639     0.939316  Biso 1.000000     C
    C   1.0     0.226794     0.516632     0.439308  Biso 1.000000     C
    C   1.0     0.226798     0.516636     0.939316  Biso 1.000000     C
    C   1.0     0.726796     0.016645     0.439302  Biso 1.000000     C
    C   1.0     0.726799     0.016648     0.939309  Biso 1.000000     C
    C   1.0     0.726797     0.516642     0.439302  Biso 1.000000     C
    C   1.0     0.726801     0.516645     0.939309  Biso 1.000000     C
    C   1.0     0.164314     0.340200     0.375058  Biso 1.000000     C
    C   1.0     0.164317     0.340203     0.875064  Biso 1.000000     C
    C   1.0     0.164314     0.840196     0.375058  Biso 1.000000     C
    C   1.0     0.164320     0.840201     0.875064  Biso 1.000000     C
    C   1.0     0.664312     0.340208     0.375052  Biso 1.000000     C
    C   1.0     0.664317     0.340212     0.875058  Biso 1.000000     C
    C   1.0     0.664314     0.840206     0.375051  Biso 1.000000     C
    C   1.0     0.664318     0.840210     0.875058  Biso 1.000000     C
    C   1.0     0.212940     0.422717     0.439264  Biso 1.000000     C
    C   1.0     0.212943     0.422720     0.939271  Biso 1.000000     C
    C   1.0     0.212941     0.922714     0.439264  Biso 1.000000     C
    C   1.0     0.212944     0.922717     0.939271  Biso 1.000000     C
    C   1.0     0.712942     0.422726     0.439258  Biso 1.000000     C
    C   1.0     0.712945     0.422729     0.939265  Biso 1.000000     C
    C   1.0     0.712943     0.922723     0.439258  Biso 1.000000     C
    C   1.0     0.712946     0.922727     0.939265  Biso 1.000000     C
    C   1.0     0.288556     0.464976     0.124843  Biso 1.000000     C
    C   1.0     0.288560     0.464980     0.624850  Biso 1.000000     C
    C   1.0     0.288559     0.964975     0.124843  Biso 1.000000     C
    C   1.0     0.288560     0.964976     0.624850  Biso 1.000000     C
    C   1.0     0.788557     0.464986     0.124837  Biso 1.000000     C
    C   1.0     0.788560     0.464988     0.624843  Biso 1.000000     C
    C   1.0     0.788558     0.964983     0.124837  Biso 1.000000     C
    C   1.0     0.788561     0.964986     0.624844  Biso 1.000000     C
    C   1.0     0.273214     0.483375     0.060704  Biso 1.000000     C
    C   1.0     0.273217     0.483379     0.560712  Biso 1.000000     C
    C   1.0     0.273215     0.983373     0.060704  Biso 1.000000     C
    C   1.0     0.273219     0.983376     0.560712  Biso 1.000000     C
    C   1.0     0.773216     0.483385     0.060698  Biso 1.000000     C
    C   1.0     0.773220     0.483388     0.560705  Biso 1.000000     C
    C   1.0     0.773218     0.983382     0.060698  Biso 1.000000     C
    C   1.0     0.773221     0.983385     0.560705  Biso 1.000000     C
    C   1.0     0.335694     0.159810     0.124956  Biso 1.000000     C
    C   1.0     0.335700     0.159814     0.624962  Biso 1.000000     C
    C   1.0     0.335697     0.659808     0.124955  Biso 1.000000     C
    C   1.0     0.335701     0.659811     0.624962  Biso 1.000000     C
    C   1.0     0.835694     0.159818     0.124950  Biso 1.000000     C
    C   1.0     0.835698     0.159822     0.624956  Biso 1.000000     C
    C   1.0     0.835694     0.659816     0.124950  Biso 1.000000     C
    C   1.0     0.835700     0.659820     0.624956  Biso 1.000000     C
    C   1.0     0.287068     0.077294     0.060749  Biso 1.000000     C
    C   1.0     0.287071     0.077297     0.560756  Biso 1.000000     C
    C   1.0     0.287069     0.577291     0.060749  Biso 1.000000     C
    C   1.0     0.287072     0.577294     0.560756  Biso 1.000000     C
    C   1.0     0.787070     0.077303     0.060742  Biso 1.000000     C
    C   1.0     0.787073     0.077307     0.560749  Biso 1.000000     C
    C   1.0     0.787071     0.577301     0.060742  Biso 1.000000     C
    C   1.0     0.787074     0.577304     0.560749  Biso 1.000000     C
    C   1.0     0.262780     0.093391     0.000040  Biso 1.000000     C
    C   1.0     0.262783     0.093394     0.500047  Biso 1.000000     C
    C   1.0     0.262782     0.593389     0.000040  Biso 1.000000     C
    C   1.0     0.262784     0.593392     0.500047  Biso 1.000000     C
    C   1.0     0.762784     0.093401     0.000033  Biso 1.000000     C
    C   1.0     0.762786     0.093404     0.500040  Biso 1.000000     C
    C   1.0     0.762785     0.593398     0.000033  Biso 1.000000     C
    C   1.0     0.762787     0.593401     0.500040  Biso 1.000000     C
    C   1.0     0.237225     0.406616    -0.000034  Biso 1.000000     C
    C   1.0     0.237228     0.406620     0.499973  Biso 1.000000     C
    C   1.0     0.237232     0.906620     0.999980  Biso 1.000000     C
    C   1.0     0.237229     0.906617     0.499973  Biso 1.000000     C
    C   1.0     0.737233     0.406632     0.999974  Biso 1.000000     C
    C   1.0     0.737231     0.406629     0.499967  Biso 1.000000     C
    C   1.0     0.737230     0.906623    -0.000041  Biso 1.000000     C
    C   1.0     0.737232     0.906626     0.499967  Biso 1.000000     C
    O   1.0     0.013995     0.152264     0.290194  Biso 1.000000     O
    O   1.0     0.013999     0.152267     0.790201  Biso 1.000000     O
    O   1.0     0.013996     0.652261     0.290194  Biso 1.000000     O
    O   1.0     0.014000     0.652264     0.790201  Biso 1.000000     O
    O   1.0     0.513995     0.152266     0.290194  Biso 1.000000     O
    O   1.0     0.514000     0.152270     0.790201  Biso 1.000000     O
    O   1.0     0.513996     0.652264     0.290194  Biso 1.000000     O
    O   1.0     0.514001     0.652267     0.790201  Biso 1.000000     O
    O   1.0     0.121118     0.019679     0.231690  Biso 1.000000     O
    O   1.0     0.121122     0.019682     0.731697  Biso 1.000000     O
    O   1.0     0.121120     0.519676     0.231690  Biso 1.000000     O
    O   1.0     0.121124     0.519680     0.731697  Biso 1.000000     O
    O   1.0     0.621110     0.019684     0.231684  Biso 1.000000     O
    O   1.0     0.621114     0.019687     0.731692  Biso 1.000000     O
    O   1.0     0.621111     0.519681     0.231684  Biso 1.000000     O
    O   1.0     0.621115     0.519684     0.731691  Biso 1.000000     O
    O   1.0     0.164620     0.100029     0.366769  Biso 1.000000     O
    O   1.0     0.164626     0.100034     0.866777  Biso 1.000000     O
    O   1.0     0.164622     0.600027     0.366770  Biso 1.000000     O
    O   1.0     0.164626     0.600031     0.866777  Biso 1.000000     O
    O   1.0     0.664628     0.100044     0.366767  Biso 1.000000     O
    O   1.0     0.664634     0.100049     0.866774  Biso 1.000000     O
    O   1.0     0.664629     0.600042     0.366767  Biso 1.000000     O
    O   1.0     0.664635     0.600046     0.866774  Biso 1.000000     O
    O   1.0     0.250834     0.487485     0.335419  Biso 1.000000     O
    O   1.0     0.250839     0.487488     0.835426  Biso 1.000000     O
    O   1.0     0.250835     0.987481     0.335419  Biso 1.000000     O
    O   1.0     0.250840     0.987486     0.835427  Biso 1.000000     O
    O   1.0     0.750826     0.487487     0.335409  Biso 1.000000     O
    O   1.0     0.750831     0.487491     0.835417  Biso 1.000000     O
    O   1.0     0.750827     0.987484     0.335409  Biso 1.000000     O
    O   1.0     0.750832     0.987488     0.835417  Biso 1.000000     O
    O   1.0     0.276413     0.137859     0.290050  Biso 1.000000     O
    O   1.0     0.276418     0.137863     0.790057  Biso 1.000000     O
    O   1.0     0.276414     0.637857     0.290050  Biso 1.000000     O
    O   1.0     0.276419     0.637860     0.790057  Biso 1.000000     O
    O   1.0     0.776405     0.137863     0.290038  Biso 1.000000     O
    O   1.0     0.776410     0.137867     0.790045  Biso 1.000000     O
    O   1.0     0.776407     0.637860     0.290038  Biso 1.000000     O
    O   1.0     0.776411     0.637864     0.790045  Biso 1.000000     O
    O   1.0     0.110363     0.211748     0.231541  Biso 1.000000     O
    O   1.0     0.110368     0.211751     0.731547  Biso 1.000000     O
    O   1.0     0.110364     0.711745     0.231541  Biso 1.000000     O
    O   1.0     0.110369     0.711748     0.731547  Biso 1.000000     O
    O   1.0     0.610350     0.211753     0.231534  Biso 1.000000     O
    O   1.0     0.610355     0.211756     0.731541  Biso 1.000000     O
    O   1.0     0.610352     0.711750     0.231534  Biso 1.000000     O
    O   1.0     0.610356     0.711754     0.731541  Biso 1.000000     O
    O   1.0     0.202844     0.266901     0.366675  Biso 1.000000     O
    O   1.0     0.202848     0.266905     0.866681  Biso 1.000000     O
    O   1.0     0.202845     0.766898     0.366674  Biso 1.000000     O
    O   1.0     0.202849     0.766902     0.866682  Biso 1.000000     O
    O   1.0     0.702847     0.266913     0.366665  Biso 1.000000     O
    O   1.0     0.702851     0.266916     0.866672  Biso 1.000000     O
    O   1.0     0.702848     0.766910     0.366665  Biso 1.000000     O
    O   1.0     0.702852     0.766914     0.866672  Biso 1.000000     O
    O   1.0     0.085013     0.347932     0.335261  Biso 1.000000     O
    O   1.0     0.085017     0.347936     0.835268  Biso 1.000000     O
    O   1.0     0.085015     0.847930     0.335261  Biso 1.000000     O
    O   1.0     0.085018     0.847933     0.835268  Biso 1.000000     O
    O   1.0     0.585006     0.347937     0.335259  Biso 1.000000     O
    O   1.0     0.585009     0.347940     0.835266  Biso 1.000000     O
    O   1.0     0.585007     0.847934     0.335259  Biso 1.000000     O
    O   1.0     0.585011     0.847937     0.835266  Biso 1.000000     O
    O   1.0     0.486015     0.347750     0.209814  Biso 1.000000     O
    O   1.0     0.486020     0.347753     0.709821  Biso 1.000000     O
    O   1.0     0.486017     0.847747     0.209814  Biso 1.000000     O
    O   1.0     0.486021     0.847750     0.709821  Biso 1.000000     O
    O   1.0     0.986015     0.347752     0.209815  Biso 1.000000     O
    O   1.0     0.986020     0.347756     0.709822  Biso 1.000000     O
    O   1.0     0.986017     0.847750     0.209815  Biso 1.000000     O
    O   1.0     0.986021     0.847753     0.709822  Biso 1.000000     O
    O   1.0     0.378891     0.480332     0.268322  Biso 1.000000     O
    O   1.0     0.378895     0.480336     0.768329  Biso 1.000000     O
    O   1.0     0.378892     0.980329     0.268322  Biso 1.000000     O
    O   1.0     0.378896     0.980333     0.768329  Biso 1.000000     O
    O   1.0     0.878883     0.480337     0.268316  Biso 1.000000     O
    O   1.0     0.878887     0.480340     0.768323  Biso 1.000000     O
    O   1.0     0.878884     0.980334     0.268316  Biso 1.000000     O
    O   1.0     0.878888     0.980338     0.768323  Biso 1.000000     O
    O   1.0     0.335385     0.399980     0.133242  Biso 1.000000     O
    O   1.0     0.335390     0.399984     0.633249  Biso 1.000000     O
    O   1.0     0.335385     0.899976     0.133241  Biso 1.000000     O
    O   1.0     0.335391     0.899981     0.633249  Biso 1.000000     O
    O   1.0     0.835392     0.399994     0.133239  Biso 1.000000     O
    O   1.0     0.835397     0.399999     0.633246  Biso 1.000000     O
    O   1.0     0.835393     0.899991     0.133239  Biso 1.000000     O
    O   1.0     0.835398     0.899996     0.633246  Biso 1.000000     O
    O   1.0     0.249172     0.012525     0.164593  Biso 1.000000     O
    O   1.0     0.249178     0.012530     0.664601  Biso 1.000000     O
    O   1.0     0.249174     0.512523     0.164594  Biso 1.000000     O
    O   1.0     0.249178     0.512526     0.664601  Biso 1.000000     O
    O   1.0     0.749164     0.012528     0.164583  Biso 1.000000     O
    O   1.0     0.749169     0.012532     0.664591  Biso 1.000000     O
    O   1.0     0.749165     0.512525     0.164583  Biso 1.000000     O
    O   1.0     0.749170     0.512529     0.664591  Biso 1.000000     O
    O   1.0     0.223599     0.362152     0.209965  Biso 1.000000     O
    O   1.0     0.223604     0.362155     0.709972  Biso 1.000000     O
    O   1.0     0.223601     0.862149     0.209965  Biso 1.000000     O
    O   1.0     0.223605     0.862153     0.709972  Biso 1.000000     O
    O   1.0     0.723592     0.362156     0.209952  Biso 1.000000     O
    O   1.0     0.723596     0.362159     0.709960  Biso 1.000000     O
    O   1.0     0.723593     0.862153     0.209952  Biso 1.000000     O
    O   1.0     0.723597     0.862157     0.709960  Biso 1.000000     O
    O   1.0     0.389656     0.288266     0.268472  Biso 1.000000     O
    O   1.0     0.389660     0.288269     0.768479  Biso 1.000000     O
    O   1.0     0.389657     0.788263     0.268472  Biso 1.000000     O
    O   1.0     0.389661     0.788267     0.768479  Biso 1.000000     O
    O   1.0     0.889643     0.288271     0.268465  Biso 1.000000     O
    O   1.0     0.889648     0.288275     0.768472  Biso 1.000000     O
    O   1.0     0.889644     0.788269     0.268466  Biso 1.000000     O
    O   1.0     0.889649     0.788272     0.768472  Biso 1.000000     O
    O   1.0     0.297165     0.233109     0.133339  Biso 1.000000     O
    O   1.0     0.297169     0.233112     0.633346  Biso 1.000000     O
    O   1.0     0.297166     0.733106     0.133339  Biso 1.000000     O
    O   1.0     0.297170     0.733110     0.633346  Biso 1.000000     O
    O   1.0     0.797168     0.233121     0.133330  Biso 1.000000     O
    O   1.0     0.797172     0.233124     0.633337  Biso 1.000000     O
    O   1.0     0.797169     0.733118     0.133330  Biso 1.000000     O
    O   1.0     0.797173     0.733121     0.633337  Biso 1.000000     O
    O   1.0     0.414997     0.152078     0.164750  Biso 1.000000     O
    O   1.0     0.415000     0.152081     0.664758  Biso 1.000000     O
    O   1.0     0.414998     0.652075     0.164751  Biso 1.000000     O
    O   1.0     0.415002     0.652078     0.664757  Biso 1.000000     O
    O   1.0     0.914989     0.152082     0.164748  Biso 1.000000     O
    O   1.0     0.914993     0.152085     0.664755  Biso 1.000000     O
    O   1.0     0.914991     0.652079     0.164748  Biso 1.000000     O
    O   1.0     0.914994     0.652082     0.664755  Biso 1.000000     O
   Al   1.0     0.145877     0.145741     0.291491  Biso 1.000000    Al
   Al   1.0     0.145882     0.145745     0.791498  Biso 1.000000    Al
   Al   1.0     0.145878     0.645739     0.291491  Biso 1.000000    Al
   Al   1.0     0.145883     0.645742     0.791498  Biso 1.000000    Al
   Al   1.0     0.645874     0.145749     0.291485  Biso 1.000000    Al
   Al   1.0     0.645879     0.145752     0.791492  Biso 1.000000    Al
   Al   1.0     0.645875     0.645746     0.291485  Biso 1.000000    Al
   Al   1.0     0.645880     0.645750     0.791492  Biso 1.000000    Al
   Al   1.0     0.354134     0.354270     0.208521  Biso 1.000000    Al
   Al   1.0     0.354139     0.354273     0.708528  Biso 1.000000    Al
   Al   1.0     0.354136     0.854267     0.208521  Biso 1.000000    Al
   Al   1.0     0.354140     0.854271     0.708528  Biso 1.000000    Al
   Al   1.0     0.854131     0.354277     0.208515  Biso 1.000000    Al
   Al   1.0     0.854136     0.354281     0.708521  Biso 1.000000    Al
   Al   1.0     0.854132     0.854274     0.208514  Biso 1.000000    Al
   Al   1.0     0.854137     0.854278     0.708521  Biso 1.000000    Al
   Al   1.0     0.999992     0.250008     0.250004  Biso 1.000000    Al
   Al   1.0     0.999996     0.250011     0.750011  Biso 1.000000    Al
   Al   1.0     0.000015     0.750005     0.250004  Biso 1.000000    Al
   Al   1.0     0.000020     0.750009     0.750011  Biso 1.000000    Al
   Al   1.0     0.500003     0.250008     0.250004  Biso 1.000000    Al
   Al   1.0     0.500008     0.250011     0.750011  Biso 1.000000    Al
   Al   1.0     0.500004     0.750005     0.250004  Biso 1.000000    Al
   Al   1.0     0.500009     0.750009     0.750011  Biso 1.000000    Al
   Al   1.0     0.250004     0.000007     0.250007  Biso 1.000000    Al
   Al   1.0     0.250008     0.000011     0.750014  Biso 1.000000    Al
   Al   1.0     0.250005     0.500005     0.250007  Biso 1.000000    Al
   Al   1.0     0.250010     0.500008     0.750014  Biso 1.000000    Al
   Al   1.0     0.749995     0.000010     0.249997  Biso 1.000000    Al
   Al   1.0     0.749999     0.000013     0.750004  Biso 1.000000    Al
   Al   1.0     0.749996     0.500007     0.249997  Biso 1.000000    Al
   Al   1.0     0.750001     0.500010     0.750004  Biso 1.000000    Al
