#======================================================================

# CRYSTAL DATA

#----------------------------------------------------------------------

data_VESTA_phase_1


_pd_phase_name                         MOF
_cell_length_a                         18.53800
_cell_length_b                         16.29700
_cell_length_c                         16.33800
_cell_angle_alpha                      63.26900
_cell_angle_beta                       79.28400
_cell_angle_gamma                      100.92900
_symmetry_space_group_name_H-M         "P 1"
_symmetry_Int_Tables_number            1

loop_
_symmetry_equiv_pos_as_xyz
   "x, y, z"

loop_
   _atom_site_label
   _atom_site_occupancy
   _atom_site_fract_x
   _atom_site_fract_y
   _atom_site_fract_z
   _atom_site_adp_type
   _atom_site_B_iso_or_equiv
   _atom_site_type_symbol
    H   1.0     0.044213     0.977197     0.346362  Biso 1.000000     H
    H   1.0     0.544201     0.977189     0.346361  Biso 1.000000     H
    H   1.0     0.125435     0.099499     0.173718  Biso 1.000000     H
    H   1.0     0.625418     0.099487     0.173713  Biso 1.000000     H
    H   1.0     0.266062     0.179093     0.141561  Biso 1.000000     H
    H   1.0     0.766046     0.179084     0.141551  Biso 1.000000     H
    H   1.0     0.319820     0.133796     0.279664  Biso 1.000000     H
    H   1.0     0.819812     0.133792     0.279649  Biso 1.000000     H
    H   1.0     0.392838     0.725772     0.641126  Biso 1.000000     H
    H   1.0     0.892872     0.725733     0.641133  Biso 1.000000     H
    H   1.0     0.286392     0.595275     0.784929  Biso 1.000000     H
    H   1.0     0.786422     0.595240     0.784933  Biso 1.000000     H
    H   1.0     0.386093     0.653353     0.968538  Biso 1.000000     H
    H   1.0     0.886086     0.653378     0.968541  Biso 1.000000     H
    H   1.0     0.499461     0.781102     0.831694  Biso 1.000000     H
    H   1.0     0.999456     0.781127     0.831696  Biso 1.000000     H
    H   1.0     0.218200     0.344386     0.677510  Biso 1.000000     H
    H   1.0     0.718206     0.344374     0.677519  Biso 1.000000     H
    H   1.0     0.214037     0.171592     0.728048  Biso 1.000000     H
    H   1.0     0.714047     0.171585     0.728038  Biso 1.000000     H
    H   1.0     0.338735     0.140265     0.680297  Biso 1.000000     H
    H   1.0     0.838746     0.140269     0.680262  Biso 1.000000     H
    H   1.0     0.460845     0.279284     0.587132  Biso 1.000000     H
    H   1.0     0.960853     0.279291     0.587102  Biso 1.000000     H
    H   1.0     0.213454     0.640088     0.633276  Biso 1.000000     H
    H   1.0     0.713456     0.640083     0.633294  Biso 1.000000     H
    H   1.0     0.179139     0.784115     0.620314  Biso 1.000000     H
    H   1.0     0.679134     0.784110     0.620317  Biso 1.000000     H
    H   1.0     0.369327     0.969090     0.377516  Biso 1.000000     H
    H   1.0     0.869313     0.969079     0.377503  Biso 1.000000     H
    H   1.0     0.413938     0.832037     0.386106  Biso 1.000000     H
    H   1.0     0.913929     0.832025     0.386107  Biso 1.000000     H
    H   1.0     0.055416     0.676114     0.976505  Biso 1.000000     H
    H   1.0     0.555426     0.676119     0.976503  Biso 1.000000     H
    H   1.0     0.075676     0.726369     0.098567  Biso 1.000000     H
    H   1.0     0.575696     0.726392     0.098550  Biso 1.000000     H
    H   1.0     0.177201     0.679799     0.177615  Biso 1.000000     H
    H   1.0     0.677224     0.679830     0.177594  Biso 1.000000     H
    H   1.0     0.253907     0.587636     0.132262  Biso 1.000000     H
    H   1.0     0.753922     0.587654     0.132252  Biso 1.000000     H
    H   1.0     0.029914     0.633306     0.725133  Biso 1.000000     H
    H   1.0     0.529859     0.633248     0.725195  Biso 1.000000     H
    H   1.0     0.488828     0.620219     0.594583  Biso 1.000000     H
    H   1.0     0.988891     0.620274     0.594523  Biso 1.000000     H
    H   1.0     0.059014     0.377414     0.653735  Biso 1.000000     H
    H   1.0     0.559093     0.377462     0.653681  Biso 1.000000     H
    H   1.0     0.108205     0.386127     0.781770  Biso 1.000000     H
    H   1.0     0.608289     0.386187     0.781706  Biso 1.000000     H
    H   1.0     0.455819     0.022773     0.653608  Biso 1.000000     H
    H   1.0     0.955815     0.022775     0.653592  Biso 1.000000     H
    H   1.0     0.374594     0.900483     0.826254  Biso 1.000000     H
    H   1.0     0.874589     0.900494     0.826240  Biso 1.000000     H
    H   1.0     0.233962     0.820910     0.858411  Biso 1.000000     H
    H   1.0     0.733956     0.820924     0.858402  Biso 1.000000     H
    H   1.0     0.180199     0.866214     0.720310  Biso 1.000000     H
    H   1.0     0.680195     0.866219     0.720301  Biso 1.000000     H
    H   1.0     0.107175     0.274180     0.358839  Biso 1.000000     H
    H   1.0     0.607192     0.274189     0.358846  Biso 1.000000     H
    H   1.0     0.213625     0.404680     0.215042  Biso 1.000000     H
    H   1.0     0.713639     0.404686     0.215043  Biso 1.000000     H
    H   1.0     0.113927     0.346625     0.031417  Biso 1.000000     H
    H   1.0     0.613928     0.346633     0.031431  Biso 1.000000     H
    H   1.0     0.000556     0.218875     0.168256  Biso 1.000000     H
    H   1.0     0.500559     0.218883     0.168273  Biso 1.000000     H
    H   1.0     0.281834     0.655624     0.322489  Biso 1.000000     H
    H   1.0     0.781832     0.655627     0.322451  Biso 1.000000     H
    H   1.0     0.285991     0.828419     0.271933  Biso 1.000000     H
    H   1.0     0.785993     0.828419     0.271916  Biso 1.000000     H
    H   1.0     0.161286     0.859750     0.319643  Biso 1.000000     H
    H   1.0     0.661294     0.859744     0.319666  Biso 1.000000     H
    H   1.0     0.039175     0.720730     0.412794  Biso 1.000000     H
    H   1.0     0.539183     0.720724     0.412822  Biso 1.000000     H
    H   1.0     0.286583     0.359918     0.366702  Biso 1.000000     H
    H   1.0     0.786592     0.359918     0.366692  Biso 1.000000     H
    H   1.0     0.320899     0.215891     0.379667  Biso 1.000000     H
    H   1.0     0.820902     0.215887     0.379658  Biso 1.000000     H
    H   1.0     0.130693     0.030916     0.622445  Biso 1.000000     H
    H   1.0     0.630688     0.030918     0.622425  Biso 1.000000     H
    H   1.0     0.086084     0.167971     0.613852  Biso 1.000000     H
    H   1.0     0.586083     0.167976     0.613830  Biso 1.000000     H
    H   1.0     0.444646     0.323925     0.023405  Biso 1.000000     H
    H   1.0     0.944640     0.323906     0.023428  Biso 1.000000     H
    H   1.0     0.424375     0.273656     0.901356  Biso 1.000000     H
    H   1.0     0.924347     0.273598     0.901411  Biso 1.000000     H
    H   1.0     0.322817     0.320172     0.822353  Biso 1.000000     H
    H   1.0     0.822785     0.320109     0.822412  Biso 1.000000     H
    H   1.0     0.246096     0.412310     0.867729  Biso 1.000000     H
    H   1.0     0.746085     0.412283     0.867757  Biso 1.000000     H
    H   1.0     0.470180     0.366754     0.274760  Biso 1.000000     H
    H   1.0     0.970224     0.366793     0.274722  Biso 1.000000     H
    H   1.0     0.011236     0.379821     0.405340  Biso 1.000000     H
    H   1.0     0.511204     0.379787     0.405374  Biso 1.000000     H
    H   1.0     0.440944     0.622547     0.346261  Biso 1.000000     H
    H   1.0     0.940930     0.622538     0.346278  Biso 1.000000     H
    H   1.0     0.391754     0.613822     0.218231  Biso 1.000000     H
    H   1.0     0.891742     0.613812     0.218248  Biso 1.000000     H
    C   1.0     0.099067     0.927933     0.501398  Biso 1.000000     C
    C   1.0     0.599059     0.927928     0.501392  Biso 1.000000     C
    C   1.0     0.023679     0.834501     0.641806  Biso 1.000000     C
    C   1.0     0.523673     0.834507     0.641801  Biso 1.000000     C
    C   1.0     0.139567     0.992275     0.400345  Biso 1.000000     C
    C   1.0     0.639557     0.992272     0.400338  Biso 1.000000     C
    C   1.0     0.105657     0.013121     0.326824  Biso 1.000000     C
    C   1.0     0.605645     0.013114     0.326819  Biso 1.000000     C
    C   1.0     0.150748     0.080597     0.232284  Biso 1.000000     C
    C   1.0     0.650734     0.080588     0.232278  Biso 1.000000     C
    C   1.0     0.228703     0.124998     0.214175  Biso 1.000000     C
    C   1.0     0.728690     0.124989     0.214165  Biso 1.000000     C
    C   1.0     0.259268     0.100816     0.290616  Biso 1.000000     C
    C   1.0     0.759260     0.100810     0.290602  Biso 1.000000     C
    C   1.0     0.456540     0.764116     0.723818  Biso 1.000000     C
    C   1.0     0.956555     0.764108     0.723822  Biso 1.000000     C
    C   1.0     0.393586     0.711423     0.712713  Biso 1.000000     C
    C   1.0     0.893608     0.711402     0.712718  Biso 1.000000     C
    C   1.0     0.333677     0.638781     0.793067  Biso 1.000000     C
    C   1.0     0.833700     0.638756     0.793071  Biso 1.000000     C
    C   1.0     0.389768     0.670637     0.895109  Biso 1.000000     C
    C   1.0     0.889772     0.670649     0.895113  Biso 1.000000     C
    C   1.0     0.452558     0.742410     0.818435  Biso 1.000000     C
    C   1.0     0.952560     0.742423     0.818437  Biso 1.000000     C
    C   1.0     0.349830     0.500616     0.570823  Biso 1.000000     C
    C   1.0     0.849831     0.500611     0.570823  Biso 1.000000     C
    C   1.0     0.344072     0.641316     0.523293  Biso 1.000000     C
    C   1.0     0.844072     0.641308     0.523306  Biso 1.000000     C
    C   1.0     0.340286     0.399296     0.607996  Biso 1.000000     C
    C   1.0     0.840292     0.399290     0.608001  Biso 1.000000     C
    C   1.0     0.270010     0.325223     0.661010  Biso 1.000000     C
    C   1.0     0.770017     0.325215     0.661009  Biso 1.000000     C
    C   1.0     0.268327     0.230579     0.688204  Biso 1.000000     C
    C   1.0     0.768335     0.230574     0.688192  Biso 1.000000     C
    C   1.0     0.337311     0.212914     0.661749  Biso 1.000000     C
    C   1.0     0.837320     0.212916     0.661724  Biso 1.000000     C
    C   1.0     0.405696     0.289861     0.609253  Biso 1.000000     C
    C   1.0     0.905704     0.289865     0.609228  Biso 1.000000     C
    C   1.0     0.317847     0.723419     0.511703  Biso 1.000000     C
    C   1.0     0.817844     0.723411     0.511714  Biso 1.000000     C
    C   1.0     0.249749     0.712033     0.575878  Biso 1.000000     C
    C   1.0     0.749745     0.712026     0.575886  Biso 1.000000     C
    C   1.0     0.230165     0.792514     0.568383  Biso 1.000000     C
    C   1.0     0.730158     0.792507     0.568386  Biso 1.000000     C
    C   1.0     0.336530     0.895304     0.433833  Biso 1.000000     C
    C   1.0     0.836518     0.895295     0.433827  Biso 1.000000     C
    C   1.0     0.360799     0.818505     0.438480  Biso 1.000000     C
    C   1.0     0.860788     0.818494     0.438479  Biso 1.000000     C
    C   1.0     0.135134     0.570781     0.927355  Biso 1.000000     C
    C   1.0     0.635149     0.570789     0.927351  Biso 1.000000     C
    C   1.0     0.106145     0.523342     0.834430  Biso 1.000000     C
    C   1.0     0.606154     0.523343     0.834434  Biso 1.000000     C
    C   1.0     0.143690     0.607769     0.991325  Biso 1.000000     C
    C   1.0     0.643694     0.607765     0.991334  Biso 1.000000     C
    C   1.0     0.099188     0.660102     0.012183  Biso 1.000000     C
    C   1.0     0.599202     0.660115     0.012174  Biso 1.000000     C
    C   1.0     0.110672     0.687166     0.079495  Biso 1.000000     C
    C   1.0     0.610688     0.687183     0.079483  Biso 1.000000     C
    C   1.0     0.166790     0.661313     0.123625  Biso 1.000000     C
    C   1.0     0.666813     0.661342     0.123605  Biso 1.000000     C
    C   1.0     0.209623     0.609430     0.099412  Biso 1.000000     C
    C   1.0     0.709638     0.609447     0.099403  Biso 1.000000     C
    C   1.0     0.074156     0.511685     0.764093  Biso 1.000000     C
    C   1.0     0.574167     0.511683     0.764096  Biso 1.000000     C
    C   1.0     0.037741     0.575868     0.711015  Biso 1.000000     C
    C   1.0     0.537719     0.575837     0.711048  Biso 1.000000     C
    C   1.0     0.014292     0.568339     0.638277  Biso 1.000000     C
    C   1.0     0.514266     0.568307     0.638313  Biso 1.000000     C
    C   1.0     0.054109     0.433738     0.670826  Biso 1.000000     C
    C   1.0     0.554156     0.433762     0.670798  Biso 1.000000     C
    C   1.0     0.080861     0.438450     0.742737  Biso 1.000000     C
    C   1.0     0.580913     0.438482     0.742702  Biso 1.000000     C
    C   1.0     0.400965     0.072045     0.498572  Biso 1.000000     C
    C   1.0     0.900958     0.072045     0.498559  Biso 1.000000     C
    C   1.0     0.476351     0.165473     0.358166  Biso 1.000000     C
    C   1.0     0.976347     0.165464     0.358152  Biso 1.000000     C
    C   1.0     0.360463     0.007712     0.599626  Biso 1.000000     C
    C   1.0     0.860458     0.007706     0.599613  Biso 1.000000     C
    C   1.0     0.394373     0.986858     0.673148  Biso 1.000000     C
    C   1.0     0.894369     0.986860     0.673133  Biso 1.000000     C
    C   1.0     0.349280     0.919389     0.767688  Biso 1.000000     C
    C   1.0     0.849275     0.919398     0.767675  Biso 1.000000     C
    C   1.0     0.271322     0.875000     0.785798  Biso 1.000000     C
    C   1.0     0.771316     0.875010     0.785787  Biso 1.000000     C
    C   1.0     0.240753     0.899185     0.709360  Biso 1.000000     C
    C   1.0     0.740749     0.899193     0.709348  Biso 1.000000     C
    C   1.0     0.043475     0.235847     0.276139  Biso 1.000000     C
    C   1.0     0.543485     0.235862     0.276149  Biso 1.000000     C
    C   1.0     0.106427     0.288537     0.287250  Biso 1.000000     C
    C   1.0     0.606445     0.288541     0.287258  Biso 1.000000     C
    C   1.0     0.166340     0.361179     0.206901  Biso 1.000000     C
    C   1.0     0.666351     0.361187     0.206903  Biso 1.000000     C
    C   1.0     0.110250     0.329335     0.104848  Biso 1.000000     C
    C   1.0     0.610254     0.329343     0.104860  Biso 1.000000     C
    C   1.0     0.047457     0.257565     0.181519  Biso 1.000000     C
    C   1.0     0.547465     0.257567     0.181533  Biso 1.000000     C
    C   1.0     0.150202     0.499394     0.429151  Biso 1.000000     C
    C   1.0     0.650204     0.499395     0.429135  Biso 1.000000     C
    C   1.0     0.155960     0.358694     0.476677  Biso 1.000000     C
    C   1.0     0.655962     0.358697     0.476655  Biso 1.000000     C
    C   1.0     0.159743     0.600715     0.391973  Biso 1.000000     C
    C   1.0     0.659745     0.600716     0.391957  Biso 1.000000     C
    C   1.0     0.230021     0.674787     0.338972  Biso 1.000000     C
    C   1.0     0.730021     0.674789     0.338951  Biso 1.000000     C
    C   1.0     0.231700     0.769432     0.311769  Biso 1.000000     C
    C   1.0     0.731703     0.769432     0.311757  Biso 1.000000     C
    C   1.0     0.162712     0.787100     0.338201  Biso 1.000000     C
    C   1.0     0.662718     0.787095     0.338213  Biso 1.000000     C
    C   1.0     0.094327     0.710152     0.390689  Biso 1.000000     C
    C   1.0     0.594333     0.710148     0.390703  Biso 1.000000     C
    C   1.0     0.182182     0.276589     0.488263  Biso 1.000000     C
    C   1.0     0.682187     0.276591     0.488248  Biso 1.000000     C
    C   1.0     0.250287     0.287974     0.424099  Biso 1.000000     C
    C   1.0     0.750292     0.287975     0.424086  Biso 1.000000     C
    C   1.0     0.269870     0.207492     0.431595  Biso 1.000000     C
    C   1.0     0.769873     0.207491     0.431583  Biso 1.000000     C
    C   1.0     0.163496     0.104702     0.566134  Biso 1.000000     C
    C   1.0     0.663494     0.104704     0.566115  Biso 1.000000     C
    C   1.0     0.139228     0.181503     0.561486  Biso 1.000000     C
    C   1.0     0.639228     0.181506     0.561467  Biso 1.000000     C
    C   1.0     0.364896     0.429212     0.072596  Biso 1.000000     C
    C   1.0     0.864908     0.429221     0.072591  Biso 1.000000     C
    C   1.0     0.393884     0.476655     0.165518  Biso 1.000000     C
    C   1.0     0.893897     0.476665     0.165513  Biso 1.000000     C
    C   1.0     0.356350     0.392235     0.008615  Biso 1.000000     C
    C   1.0     0.856353     0.392229     0.008625  Biso 1.000000     C
    C   1.0     0.400861     0.339917     0.987746  Biso 1.000000     C
    C   1.0     0.900853     0.339893     0.987772  Biso 1.000000     C
    C   1.0     0.389369     0.312842     0.920443  Biso 1.000000     C
    C   1.0     0.889349     0.312799     0.920485  Biso 1.000000     C
    C   1.0     0.333233     0.338666     0.876337  Biso 1.000000     C
    C   1.0     0.833209     0.338617     0.876384  Biso 1.000000     C
    C   1.0     0.290392     0.390535     0.900564  Biso 1.000000     C
    C   1.0     0.790381     0.390506     0.900591  Biso 1.000000     C
    C   1.0     0.425875     0.488322     0.235851  Biso 1.000000     C
    C   1.0     0.925892     0.488338     0.235839  Biso 1.000000     C
    C   1.0     0.462320     0.424167     0.288904  Biso 1.000000     C
    C   1.0     0.962348     0.424192     0.288882  Biso 1.000000     C
    C   1.0     0.485768     0.431700     0.361640  Biso 1.000000     C
    C   1.0     0.985800     0.431726     0.361615  Biso 1.000000     C
    C   1.0     0.445881     0.566245     0.329147  Biso 1.000000     C
    C   1.0     0.945883     0.566248     0.329150  Biso 1.000000     C
    C   1.0     0.419127     0.561526     0.257240  Biso 1.000000     C
    C   1.0     0.919125     0.561525     0.257247  Biso 1.000000     C
    N   1.0     0.141096     0.925919     0.561953  Biso 1.000000     N
    N   1.0     0.641087     0.925921     0.561947  Biso 1.000000     N
    N   1.0     0.092576     0.866492     0.653152  Biso 1.000000     N
    N   1.0     0.592571     0.866489     0.653147  Biso 1.000000     N
    N   1.0     0.025324     0.870933     0.548160  Biso 1.000000     N
    N   1.0     0.525315     0.870938     0.548157  Biso 1.000000     N
    N   1.0     0.216283     0.035541     0.382939  Biso 1.000000     N
    N   1.0     0.716274     0.035539     0.382926  Biso 1.000000     N
    N   1.0     0.330739     0.616108     0.884830  Biso 1.000000     N
    N   1.0     0.830754     0.616110     0.884830  Biso 1.000000     N
    N   1.0     0.421780     0.561642     0.511730  Biso 1.000000     N
    N   1.0     0.921783     0.561639     0.511744  Biso 1.000000     N
    N   1.0     0.418465     0.653017     0.479597  Biso 1.000000     N
    N   1.0     0.918464     0.653013     0.479603  Biso 1.000000     N
    N   1.0     0.299350     0.547238     0.581046  Biso 1.000000     N
    N   1.0     0.799352     0.547229     0.581060  Biso 1.000000     N
    N   1.0     0.408372     0.382292     0.582015  Biso 1.000000     N
    N   1.0     0.908379     0.382293     0.582007  Biso 1.000000     N
    N   1.0     0.272856     0.884712     0.499108  Biso 1.000000     N
    N   1.0     0.772850     0.884704     0.499109  Biso 1.000000     N
    N   1.0     0.178067     0.512031     0.925802  Biso 1.000000     N
    N   1.0     0.678073     0.512026     0.925812  Biso 1.000000     N
    N   1.0     0.159058     0.479963     0.866686  Biso 1.000000     N
    N   1.0     0.659073     0.479972     0.866684  Biso 1.000000     N
    N   1.0     0.089734     0.580833     0.870437  Biso 1.000000     N
    N   1.0     0.589739     0.580827     0.870446  Biso 1.000000     N
    N   1.0     0.199031     0.582217     0.034438  Biso 1.000000     N
    N   1.0     0.699040     0.582220     0.034440  Biso 1.000000     N
    N   1.0     0.022619     0.499014     0.615888  Biso 1.000000     N
    N   1.0     0.522635     0.499015     0.615889  Biso 1.000000     N
    N   1.0     0.358932     0.074082     0.438016  Biso 1.000000     N
    N   1.0     0.858929     0.074058     0.438004  Biso 1.000000     N
    N   1.0     0.407451     0.133502     0.346816  Biso 1.000000     N
    N   1.0     0.907445     0.133498     0.346804  Biso 1.000000     N
    N   1.0     0.474711     0.129032     0.451810  Biso 1.000000     N
    N   1.0     0.974705     0.129024     0.451797  Biso 1.000000     N
    N   1.0     0.283744     0.964453     0.617037  Biso 1.000000     N
    N   1.0     0.783738     0.964453     0.617023  Biso 1.000000     N
    N   1.0     0.169275     0.383858     0.115138  Biso 1.000000     N
    N   1.0     0.669287     0.383865     0.115139  Biso 1.000000     N
    N   1.0     0.078247     0.438370     0.488224  Biso 1.000000     N
    N   1.0     0.578253     0.438370     0.488221  Biso 1.000000     N
    N   1.0     0.081564     0.346996     0.520361  Biso 1.000000     N
    N   1.0     0.581568     0.346995     0.520349  Biso 1.000000     N
    N   1.0     0.200684     0.452773     0.418934  Biso 1.000000     N
    N   1.0     0.700684     0.452775     0.418907  Biso 1.000000     N
    N   1.0     0.091654     0.617719     0.417937  Biso 1.000000     N
    N   1.0     0.591657     0.617717     0.417938  Biso 1.000000     N
    N   1.0     0.227165     0.115293     0.500854  Biso 1.000000     N
    N   1.0     0.727166     0.115292     0.500841  Biso 1.000000     N
    N   1.0     0.321959     0.487958     0.074148  Biso 1.000000     N
    N   1.0     0.821970     0.487966     0.074147  Biso 1.000000     N
    N   1.0     0.340950     0.520004     0.133286  Biso 1.000000     N
    N   1.0     0.840964     0.520017     0.133281  Biso 1.000000     N
    N   1.0     0.410312     0.419185     0.129494  Biso 1.000000     N
    N   1.0     0.910324     0.419193     0.129490  Biso 1.000000     N
    N   1.0     0.300987     0.417755     0.965531  Biso 1.000000     N
    N   1.0     0.800993     0.417751     0.965537  Biso 1.000000     N
    N   1.0     0.477399     0.500993     0.384063  Biso 1.000000     N
    N   1.0     0.977404     0.500997     0.384060  Biso 1.000000     N
   Fe   1.0     0.250017    -0.000006     0.499986  Biso 1.000000    Fe
   Fe   1.0     0.750008    -0.000010     0.499974  Biso 1.000000    Fe
   Fe   1.0     0.000000     0.500008     0.499972  Biso 1.000000    Fe
   Fe   1.0     0.500014     0.500005     0.499976  Biso 1.000000    Fe
   Fe   1.0     0.250006     0.499984    -0.000017  Biso 1.000000    Fe
   Fe   1.0     0.750019     0.499990    -0.000019  Biso 1.000000    Fe
