#======================================================================

# CRYSTAL DATA

#----------------------------------------------------------------------

data_VESTA_phase_1


_pd_phase_name                         MOF
_cell_length_a                         18.34200
_cell_length_b                         16.37900
_cell_length_c                         16.37500
_cell_angle_alpha                      63.42700
_cell_angle_beta                       79.24400
_cell_angle_gamma                      100.74800
_symmetry_space_group_name_H-M         "P 1"
_symmetry_Int_Tables_number            1

loop_
_symmetry_equiv_pos_as_xyz
   "x, y, z"

loop_
   _atom_site_label
   _atom_site_occupancy
   _atom_site_fract_x
   _atom_site_fract_y
   _atom_site_fract_z
   _atom_site_adp_type
   _atom_site_B_iso_or_equiv
   _atom_site_type_symbol
    H   1.0     0.041200     0.651407     0.025363  Biso 1.000000     H
    H   1.0     0.541190     0.651425     0.025372  Biso 1.000000     H
    H   1.0     0.122066     0.823485     0.904170  Biso 1.000000     H
    H   1.0     0.622051     0.823505     0.904176  Biso 1.000000     H
    H   1.0     0.263745     0.856283     0.823416  Biso 1.000000     H
    H   1.0     0.763729     0.856294     0.823420  Biso 1.000000     H
    H   1.0     0.319017     0.719439     0.867268  Biso 1.000000     H
    H   1.0     0.819010     0.719457     0.867267  Biso 1.000000     H
    H   1.0     0.390866     0.357579     0.274775  Biso 1.000000     H
    H   1.0     0.890886     0.357583     0.274737  Biso 1.000000     H
    H   1.0     0.285261     0.213992     0.405980  Biso 1.000000     H
    H   1.0     0.785268     0.213999     0.405925  Biso 1.000000     H
    H   1.0     0.386033     0.031804     0.346379  Biso 1.000000     H
    H   1.0     0.886032     0.031806     0.346347  Biso 1.000000     H
    H   1.0     0.498651     0.168692     0.217445  Biso 1.000000     H
    H   1.0     0.998665     0.168680     0.217428  Biso 1.000000     H
    H   1.0     0.055116     0.025910     0.321478  Biso 1.000000     H
    H   1.0     0.555090     0.025887     0.321480  Biso 1.000000     H
    H   1.0     0.075653     0.904502     0.270886  Biso 1.000000     H
    H   1.0     0.575628     0.904482     0.270881  Biso 1.000000     H
    H   1.0     0.176588     0.823422     0.319758  Biso 1.000000     H
    H   1.0     0.676583     0.823426     0.319729  Biso 1.000000     H
    H   1.0     0.253146     0.867112     0.413411  Biso 1.000000     H
    H   1.0     0.753156     0.867125     0.413368  Biso 1.000000     H
    H   1.0     0.028821     0.275684     0.366287  Biso 1.000000     H
    H   1.0     0.528814     0.275685     0.366286  Biso 1.000000     H
    H   1.0     0.488589     0.406612     0.379180  Biso 1.000000     H
    H   1.0     0.988621     0.406622     0.379164  Biso 1.000000     H
    H   1.0     0.058284     0.345605     0.622006  Biso 1.000000     H
    H   1.0     0.558287     0.345582     0.622015  Biso 1.000000     H
    H   1.0     0.106517     0.216786     0.613737  Biso 1.000000     H
    H   1.0     0.606523     0.216774     0.613725  Biso 1.000000     H
    H   1.0     0.215819     0.322258     0.652396  Biso 1.000000     H
    H   1.0     0.715840     0.322282     0.652387  Biso 1.000000     H
    H   1.0     0.211160     0.271507     0.824398  Biso 1.000000     H
    H   1.0     0.711184     0.271544     0.824388  Biso 1.000000     H
    H   1.0     0.336586     0.320025     0.856675  Biso 1.000000     H
    H   1.0     0.836620     0.320070     0.856647  Biso 1.000000     H
    H   1.0     0.459939     0.413389     0.719397  Biso 1.000000     H
    H   1.0     0.959977     0.413420     0.719370  Biso 1.000000     H
    H   1.0     0.212126     0.366520     0.357857  Biso 1.000000     H
    H   1.0     0.712131     0.366540     0.357850  Biso 1.000000     H
    H   1.0     0.178376     0.379243     0.214059  Biso 1.000000     H
    H   1.0     0.678366     0.379267     0.214058  Biso 1.000000     H
    H   1.0     0.369167     0.622235     0.032394  Biso 1.000000     H
    H   1.0     0.869168     0.622258     0.032382  Biso 1.000000     H
    H   1.0     0.413286     0.614067     0.169460  Biso 1.000000     H
    H   1.0     0.913296     0.614074     0.169448  Biso 1.000000     H
    H   1.0     0.458795     0.348540     0.974640  Biso 1.000000     H
    H   1.0     0.958782     0.348552     0.974646  Biso 1.000000     H
    H   1.0     0.377929     0.176463     0.095831  Biso 1.000000     H
    H   1.0     0.877912     0.176480     0.095846  Biso 1.000000     H
    H   1.0     0.236246     0.143667     0.176564  Biso 1.000000     H
    H   1.0     0.736231     0.143678     0.176586  Biso 1.000000     H
    H   1.0     0.180970     0.280507     0.132696  Biso 1.000000     H
    H   1.0     0.680964     0.280526     0.132706  Biso 1.000000     H
    H   1.0     0.109101     0.642391     0.725258  Biso 1.000000     H
    H   1.0     0.609124     0.642396     0.725235  Biso 1.000000     H
    H   1.0     0.214720     0.785975     0.594066  Biso 1.000000     H
    H   1.0     0.714733     0.785982     0.594027  Biso 1.000000     H
    H   1.0     0.113934     0.968172     0.653651  Biso 1.000000     H
    H   1.0     0.613939     0.968179     0.653625  Biso 1.000000     H
    H   1.0     0.001307     0.831282     0.782570  Biso 1.000000     H
    H   1.0     0.501324     0.831277     0.782555  Biso 1.000000     H
    H   1.0     0.444869     0.974064     0.678554  Biso 1.000000     H
    H   1.0     0.944872     0.974071     0.678515  Biso 1.000000     H
    H   1.0     0.424326     0.095464     0.729156  Biso 1.000000     H
    H   1.0     0.924341     0.095486     0.729097  Biso 1.000000     H
    H   1.0     0.323383     0.176535     0.680292  Biso 1.000000     H
    H   1.0     0.823405     0.176566     0.680232  Biso 1.000000     H
    H   1.0     0.246819     0.132840     0.586646  Biso 1.000000     H
    H   1.0     0.746842     0.132866     0.586589  Biso 1.000000     H
    H   1.0     0.471165     0.724280     0.633718  Biso 1.000000     H
    H   1.0     0.971159     0.724288     0.633696  Biso 1.000000     H
    H   1.0     0.011378     0.593367     0.620802  Biso 1.000000     H
    H   1.0     0.511377     0.593344     0.620829  Biso 1.000000     H
    H   1.0     0.441660     0.654373     0.378000  Biso 1.000000     H
    H   1.0     0.941698     0.654397     0.377952  Biso 1.000000     H
    H   1.0     0.393435     0.783186     0.386295  Biso 1.000000     H
    H   1.0     0.893451     0.783196     0.386257  Biso 1.000000     H
    H   1.0     0.284146     0.677723     0.347580  Biso 1.000000     H
    H   1.0     0.784141     0.677704     0.347600  Biso 1.000000     H
    H   1.0     0.288797     0.728460     0.175583  Biso 1.000000     H
    H   1.0     0.788798     0.728455     0.175597  Biso 1.000000     H
    H   1.0     0.163373     0.679934     0.143307  Biso 1.000000     H
    H   1.0     0.663367     0.679933     0.143328  Biso 1.000000     H
    H   1.0     0.040023     0.586575     0.280592  Biso 1.000000     H
    H   1.0     0.540013     0.586567     0.280607  Biso 1.000000     H
    H   1.0     0.287851     0.633435     0.642126  Biso 1.000000     H
    H   1.0     0.787842     0.633435     0.642134  Biso 1.000000     H
    H   1.0     0.321626     0.620698     0.785919  Biso 1.000000     H
    H   1.0     0.821605     0.620707     0.785928  Biso 1.000000     H
    H   1.0     0.130803     0.377710     0.967595  Biso 1.000000     H
    H   1.0     0.630802     0.377722     0.967603  Biso 1.000000     H
    H   1.0     0.086675     0.385918     0.830520  Biso 1.000000     H
    H   1.0     0.586674     0.385904     0.830535  Biso 1.000000     H
    C   1.0     0.097434     0.497645     0.072123  Biso 1.000000     C
    C   1.0     0.597418     0.497652     0.072121  Biso 1.000000     C
    C   1.0     0.022126     0.357629     0.164719  Biso 1.000000     C
    C   1.0     0.522112     0.357640     0.164721  Biso 1.000000     C
    C   1.0     0.137792     0.598350     0.008812  Biso 1.000000     C
    C   1.0     0.637778     0.598362     0.008850  Biso 1.000000     C
    C   1.0     0.103099     0.671198     0.989077  Biso 1.000000     C
    C   1.0     0.603085     0.671214     0.989070  Biso 1.000000     C
    C   1.0     0.148002     0.765440     0.922214  Biso 1.000000     C
    C   1.0     0.647988     0.765460     0.922224  Biso 1.000000     C
    C   1.0     0.226544     0.783901     0.877206  Biso 1.000000     C
    C   1.0     0.726527     0.783914     0.877210  Biso 1.000000     C
    C   1.0     0.257927     0.708148     0.900492  Biso 1.000000     C
    C   1.0     0.757922     0.708171     0.900494  Biso 1.000000     C
    C   1.0     0.455107     0.275693     0.235382  Biso 1.000000     C
    C   1.0     0.955124     0.275688     0.235350  Biso 1.000000     C
    C   1.0     0.392016     0.286382     0.288853  Biso 1.000000     C
    C   1.0     0.892040     0.286384     0.288825  Biso 1.000000     C
    C   1.0     0.332593     0.206133     0.361947  Biso 1.000000     C
    C   1.0     0.832596     0.206138     0.361889  Biso 1.000000     C
    C   1.0     0.389282     0.104902     0.329163  Biso 1.000000     C
    C   1.0     0.889274     0.104904     0.329120  Biso 1.000000     C
    C   1.0     0.451619     0.181550     0.256805  Biso 1.000000     C
    C   1.0     0.951635     0.181540     0.256791  Biso 1.000000     C
    C   1.0     0.133969     0.072460     0.429287  Biso 1.000000     C
    C   1.0     0.633972     0.072471     0.429250  Biso 1.000000     C
    C   1.0     0.104595     0.165002     0.476735  Biso 1.000000     C
    C   1.0     0.604588     0.164988     0.476728  Biso 1.000000     C
    C   1.0     0.142905     0.009100     0.391905  Biso 1.000000     C
    C   1.0     0.642874     0.009072     0.391909  Biso 1.000000     C
    C   1.0     0.098724     0.989475     0.338384  Biso 1.000000     C
    C   1.0     0.598716     0.989474     0.338356  Biso 1.000000     C
    C   1.0     0.110345     0.922492     0.311167  Biso 1.000000     C
    C   1.0     0.610315     0.922465     0.311169  Biso 1.000000     C
    C   1.0     0.166171     0.877290     0.338233  Biso 1.000000     C
    C   1.0     0.666175     0.877306     0.338189  Biso 1.000000     C
    C   1.0     0.208839     0.900488     0.391059  Biso 1.000000     C
    C   1.0     0.708827     0.900470     0.391046  Biso 1.000000     C
    C   1.0     0.072715     0.235534     0.488125  Biso 1.000000     C
    C   1.0     0.572729     0.235539     0.488105  Biso 1.000000     C
    C   1.0     0.036698     0.289381     0.423743  Biso 1.000000     C
    C   1.0     0.536681     0.289363     0.423755  Biso 1.000000     C
    C   1.0     0.013691     0.362334     0.431177  Biso 1.000000     C
    C   1.0     0.513700     0.362337     0.431172  Biso 1.000000     C
    C   1.0     0.053248     0.328743     0.565796  Biso 1.000000     C
    C   1.0     0.553266     0.328739     0.565790  Biso 1.000000     C
    C   1.0     0.079497     0.256494     0.561288  Biso 1.000000     C
    C   1.0     0.579487     0.256470     0.561291  Biso 1.000000     C
    C   1.0     0.348578     0.429732     0.498127  Biso 1.000000     C
    C   1.0     0.848599     0.429745     0.498111  Biso 1.000000     C
    C   1.0     0.342965     0.477109     0.358153  Biso 1.000000     C
    C   1.0     0.842980     0.477124     0.358141  Biso 1.000000     C
    C   1.0     0.338839     0.392341     0.598850  Biso 1.000000     C
    C   1.0     0.838858     0.392360     0.598834  Biso 1.000000     C
    C   1.0     0.267917     0.338971     0.671957  Biso 1.000000     C
    C   1.0     0.767939     0.338995     0.671947  Biso 1.000000     C
    C   1.0     0.265975     0.311693     0.766155  Biso 1.000000     C
    C   1.0     0.765998     0.311729     0.766142  Biso 1.000000     C
    C   1.0     0.335365     0.338523     0.784340  Biso 1.000000     C
    C   1.0     0.835395     0.338554     0.784318  Biso 1.000000     C
    C   1.0     0.404425     0.391225     0.708347  Biso 1.000000     C
    C   1.0     0.904457     0.391260     0.708331  Biso 1.000000     C
    C   1.0     0.316815     0.488403     0.276238  Biso 1.000000     C
    C   1.0     0.816829     0.488416     0.276228  Biso 1.000000     C
    C   1.0     0.248668     0.423971     0.286737  Biso 1.000000     C
    C   1.0     0.748675     0.423992     0.286732  Biso 1.000000     C
    C   1.0     0.229404     0.431316     0.206358  Biso 1.000000     C
    C   1.0     0.729395     0.431334     0.206363  Biso 1.000000     C
    C   1.0     0.336107     0.566001     0.105422  Biso 1.000000     C
    C   1.0     0.836110     0.566023     0.105410  Biso 1.000000     C
    C   1.0     0.360100     0.561566     0.182168  Biso 1.000000     C
    C   1.0     0.860106     0.561580     0.182156  Biso 1.000000     C
    C   1.0     0.402564     0.502319     0.927874  Biso 1.000000     C
    C   1.0     0.902546     0.502321     0.927869  Biso 1.000000     C
    C   1.0     0.477872     0.642330     0.835273  Biso 1.000000     C
    C   1.0     0.977860     0.642336     0.835276  Biso 1.000000     C
    C   1.0     0.362206     0.401606     0.991139  Biso 1.000000     C
    C   1.0     0.862186     0.401615     0.991172  Biso 1.000000     C
    C   1.0     0.396898     0.328753     0.010929  Biso 1.000000     C
    C   1.0     0.896882     0.328767     0.010924  Biso 1.000000     C
    C   1.0     0.351992     0.234509     0.077777  Biso 1.000000     C
    C   1.0     0.851978     0.234528     0.077792  Biso 1.000000     C
    C   1.0     0.273447     0.216047     0.122772  Biso 1.000000     C
    C   1.0     0.773431     0.216058     0.122788  Biso 1.000000     C
    C   1.0     0.242061     0.291799     0.099477  Biso 1.000000     C
    C   1.0     0.742056     0.291819     0.099489  Biso 1.000000     C
    C   1.0     0.044858     0.724280     0.764643  Biso 1.000000     C
    C   1.0     0.544881     0.724278     0.764627  Biso 1.000000     C
    C   1.0     0.107948     0.713590     0.711171  Biso 1.000000     C
    C   1.0     0.607971     0.713595     0.711148  Biso 1.000000     C
    C   1.0     0.167387     0.793835     0.638097  Biso 1.000000     C
    C   1.0     0.667400     0.793839     0.638060  Biso 1.000000     C
    C   1.0     0.110688     0.895074     0.670873  Biso 1.000000     C
    C   1.0     0.610692     0.895080     0.670845  Biso 1.000000     C
    C   1.0     0.048340     0.818425     0.743209  Biso 1.000000     C
    C   1.0     0.548356     0.818422     0.743192  Biso 1.000000     C
    C   1.0     0.366008     0.927506     0.570753  Biso 1.000000     C
    C   1.0     0.866020     0.927530     0.570700  Biso 1.000000     C
    C   1.0     0.395375     0.834968     0.523295  Biso 1.000000     C
    C   1.0     0.895390     0.834988     0.523248  Biso 1.000000     C
    C   1.0     0.357076     0.990869     0.608133  Biso 1.000000     C
    C   1.0     0.857068     0.990869     0.608105  Biso 1.000000     C
    C   1.0     0.401253     0.010489     0.661659  Biso 1.000000     C
    C   1.0     0.901273     0.010518     0.661594  Biso 1.000000     C
    C   1.0     0.389643     0.077485     0.688862  Biso 1.000000     C
    C   1.0     0.889645     0.077492     0.688822  Biso 1.000000     C
    C   1.0     0.333791     0.122654     0.661832  Biso 1.000000     C
    C   1.0     0.833816     0.122693     0.661762  Biso 1.000000     C
    C   1.0     0.291139     0.099483     0.608979  Biso 1.000000     C
    C   1.0     0.791151     0.099493     0.608934  Biso 1.000000     C
    C   1.0     0.427258     0.764445     0.511890  Biso 1.000000     C
    C   1.0     0.927243     0.764428     0.511882  Biso 1.000000     C
    C   1.0     0.463273     0.710584     0.576266  Biso 1.000000     C
    C   1.0     0.963297     0.710607     0.576227  Biso 1.000000     C
    C   1.0     0.486283     0.637635     0.568826  Biso 1.000000     C
    C   1.0     0.986281     0.637633     0.568812  Biso 1.000000     C
    C   1.0     0.446704     0.671232     0.434210  Biso 1.000000     C
    C   1.0     0.946709     0.671238     0.434181  Biso 1.000000     C
    C   1.0     0.420457     0.743474     0.438738  Biso 1.000000     C
    C   1.0     0.920489     0.743503     0.438691  Biso 1.000000     C
    C   1.0     0.151386     0.570249     0.501846  Biso 1.000000     C
    C   1.0     0.651386     0.570220     0.501869  Biso 1.000000     C
    C   1.0     0.156997     0.522872     0.641825  Biso 1.000000     C
    C   1.0     0.656994     0.522854     0.641842  Biso 1.000000     C
    C   1.0     0.161119     0.607641     0.401125  Biso 1.000000     C
    C   1.0     0.661119     0.607635     0.401145  Biso 1.000000     C
    C   1.0     0.232046     0.661001     0.328024  Biso 1.000000     C
    C   1.0     0.732044     0.660983     0.328040  Biso 1.000000     C
    C   1.0     0.233983     0.688278     0.233828  Biso 1.000000     C
    C   1.0     0.733983     0.688272     0.233841  Biso 1.000000     C
    C   1.0     0.164596     0.661438     0.215640  Biso 1.000000     C
    C   1.0     0.664592     0.661434     0.215661  Biso 1.000000     C
    C   1.0     0.095538     0.608747     0.291637  Biso 1.000000     C
    C   1.0     0.595529     0.608736     0.291649  Biso 1.000000     C
    C   1.0     0.183144     0.511572     0.723744  Biso 1.000000     C
    C   1.0     0.683142     0.511565     0.723756  Biso 1.000000     C
    C   1.0     0.251308     0.575979     0.713242  Biso 1.000000     C
    C   1.0     0.751302     0.575979     0.713252  Biso 1.000000     C
    C   1.0     0.270591     0.568644     0.793607  Biso 1.000000     C
    C   1.0     0.770568     0.568649     0.793625  Biso 1.000000     C
    C   1.0     0.163861     0.433952     0.894567  Biso 1.000000     C
    C   1.0     0.663854     0.433963     0.894574  Biso 1.000000     C
    C   1.0     0.139872     0.438400     0.817816  Biso 1.000000     C
    C   1.0     0.639869     0.438392     0.817826  Biso 1.000000     C
    N   1.0     0.140083     0.437700     0.072994  Biso 1.000000     N
    N   1.0     0.640082     0.437718     0.073002  Biso 1.000000     N
    N   1.0     0.091601     0.346754     0.131827  Biso 1.000000     N
    N   1.0     0.591594     0.346776     0.131837  Biso 1.000000     N
    N   1.0     0.023320     0.450704     0.129316  Biso 1.000000     N
    N   1.0     0.523310     0.450714     0.129338  Biso 1.000000     N
    N   1.0     0.215154     0.616126     0.965241  Biso 1.000000     N
    N   1.0     0.715128     0.616153     0.965222  Biso 1.000000     N
    N   1.0     0.330233     0.114858     0.384364  Biso 1.000000     N
    N   1.0     0.830235     0.114855     0.384342  Biso 1.000000     N
    N   1.0     0.176708     0.073149     0.488749  Biso 1.000000     N
    N   1.0     0.676702     0.073157     0.488721  Biso 1.000000     N
    N   1.0     0.157400     0.131953     0.520858  Biso 1.000000     N
    N   1.0     0.657405     0.131962     0.520837  Biso 1.000000     N
    N   1.0     0.088477     0.129723     0.418778  Biso 1.000000     N
    N   1.0     0.588466     0.129715     0.418766  Biso 1.000000     N
    N   1.0     0.198230     0.965292     0.418252  Biso 1.000000     N
    N   1.0     0.698237     0.965311     0.418190  Biso 1.000000     N
    N   1.0     0.022200     0.384364     0.500410  Biso 1.000000     N
    N   1.0     0.522173     0.384325     0.500440  Biso 1.000000     N
    N   1.0     0.421063     0.489047     0.438050  Biso 1.000000     N
    N   1.0     0.921081     0.489062     0.438023  Biso 1.000000     N
    N   1.0     0.417831     0.521120     0.347147  Biso 1.000000     N
    N   1.0     0.917853     0.521128     0.347120  Biso 1.000000     N
    N   1.0     0.297846     0.419261     0.451336  Biso 1.000000     N
    N   1.0     0.797864     0.419272     0.451325  Biso 1.000000     N
    N   1.0     0.407378     0.418438     0.616362  Biso 1.000000     N
    N   1.0     0.907392     0.418450     0.616355  Biso 1.000000     N
    N   1.0     0.272417     0.500584     0.115137  Biso 1.000000     N
    N   1.0     0.772415     0.500599     0.115144  Biso 1.000000     N
    N   1.0     0.359880     0.562231     0.927006  Biso 1.000000     N
    N   1.0     0.859877     0.562246     0.927003  Biso 1.000000     N
    N   1.0     0.408379     0.653166     0.868168  Biso 1.000000     N
    N   1.0     0.908371     0.653185     0.868165  Biso 1.000000     N
    N   1.0     0.476675     0.549255     0.870665  Biso 1.000000     N
    N   1.0     0.976661     0.549260     0.870678  Biso 1.000000     N
    N   1.0     0.284853     0.383819     0.034754  Biso 1.000000     N
    N   1.0     0.784827     0.383844     0.034746  Biso 1.000000     N
    N   1.0     0.169731     0.885107     0.615674  Biso 1.000000     N
    N   1.0     0.669739     0.885104     0.615662  Biso 1.000000     N
    N   1.0     0.323270     0.926814     0.511292  Biso 1.000000     N
    N   1.0     0.823268     0.926834     0.511252  Biso 1.000000     N
    N   1.0     0.342571     0.868015     0.479171  Biso 1.000000     N
    N   1.0     0.842570     0.868023     0.479149  Biso 1.000000     N
    N   1.0     0.411499     0.870243     0.581255  Biso 1.000000     N
    N   1.0     0.911494     0.870246     0.581226  Biso 1.000000     N
    N   1.0     0.301743     0.034669     0.581799  Biso 1.000000     N
    N   1.0     0.801764     0.034704     0.581721  Biso 1.000000     N
    N   1.0     0.477766     0.615621     0.499585  Biso 1.000000     N
    N   1.0     0.977814     0.615669     0.499527  Biso 1.000000     N
    N   1.0     0.078902     0.510939     0.561929  Biso 1.000000     N
    N   1.0     0.578900     0.510921     0.561958  Biso 1.000000     N
    N   1.0     0.082129     0.478865     0.652834  Biso 1.000000     N
    N   1.0     0.582126     0.478837     0.652863  Biso 1.000000     N
    N   1.0     0.202115     0.580719     0.548641  Biso 1.000000     N
    N   1.0     0.702113     0.580708     0.548659  Biso 1.000000     N
    N   1.0     0.092578     0.581522     0.383626  Biso 1.000000     N
    N   1.0     0.592587     0.581517     0.383632  Biso 1.000000     N
    N   1.0     0.227569     0.499368     0.884819  Biso 1.000000     N
    N   1.0     0.727565     0.499364     0.884843  Biso 1.000000     N
   Fe   1.0     0.249975     0.499948     0.999983  Biso 1.000000    Fe
   Fe   1.0     0.749971     0.499995     0.999984  Biso 1.000000    Fe
   Fe   1.0     0.249993    -0.000023     0.500026  Biso 1.000000    Fe
   Fe   1.0     0.749972    -0.000026     0.499988  Biso 1.000000    Fe
   Fe   1.0    -0.000032     0.499997     0.499994  Biso 1.000000    Fe
   Fe   1.0     0.499987     0.499985     0.499999  Biso 1.000000    Fe
