#======================================================================

# CRYSTAL DATA

#----------------------------------------------------------------------

data_VESTA_phase_1


_pd_phase_name                         MOF
_cell_length_a                         16.34100
_cell_length_b                         18.07800
_cell_length_c                         18.06600
_cell_angle_alpha                      68.74500
_cell_angle_beta                       72.54700
_cell_angle_gamma                      107.43000
_symmetry_space_group_name_H-M         "P 1"
_symmetry_Int_Tables_number            1

loop_
_symmetry_equiv_pos_as_xyz
   "x, y, z"

loop_
   _atom_site_label
   _atom_site_occupancy
   _atom_site_fract_x
   _atom_site_fract_y
   _atom_site_fract_z
   _atom_site_adp_type
   _atom_site_B_iso_or_equiv
   _atom_site_type_symbol
    H   1.0     0.857302     0.072478     0.733200  Biso 1.000000     H
    H   1.0     0.688306     0.945640     0.812959  Biso 1.000000     H
    H   1.0     0.652425     0.840801     0.752674  Biso 1.000000     H
    H   1.0     0.784103     0.865931     0.617508  Biso 1.000000     H
    H   1.0     0.338562     0.261055     0.433819  Biso 1.000000     H
    H   1.0     0.474001     0.379109     0.422987  Biso 1.000000     H
    H   1.0     0.286987     0.440216     0.574768  Biso 1.000000     H
    H   1.0     0.143900     0.320982     0.595000  Biso 1.000000     H
    H   1.0     0.587283     0.732663     0.195967  Biso 1.000000     H
    H   1.0     0.498341     0.812878     0.243957  Biso 1.000000     H
    H   1.0     0.403698     0.753073     0.408840  Biso 1.000000     H
    H   1.0     0.401338     0.617929     0.517811  Biso 1.000000     H
    H   1.0     0.772867     0.434821     0.304530  Biso 1.000000     H
    H   1.0     0.898023     0.424099     0.197396  Biso 1.000000     H
    H   1.0     0.860940     0.574310     0.985186  Biso 1.000000     H
    H   1.0     0.737276     0.594195     0.084183  Biso 1.000000     H
    H   1.0     0.782703     0.196336     0.071485  Biso 1.000000     H
    H   1.0     0.741617     0.244308     0.943366  Biso 1.000000     H
    H   1.0     0.812473     0.409027     0.838041  Biso 1.000000     H
    H   1.0     0.919533     0.517893     0.864055  Biso 1.000000     H
    H   1.0     0.078167     0.304223     0.260016  Biso 1.000000     H
    H   1.0     0.095837     0.197042     0.378212  Biso 1.000000     H
    H   1.0     0.845824     0.986155     0.440933  Biso 1.000000     H
    H   1.0     0.821405     0.085168     0.321811  Biso 1.000000     H
    H   1.0     0.142716     0.927600     0.266793  Biso 1.000000     H
    H   1.0     0.311717     0.054425     0.187055  Biso 1.000000     H
    H   1.0     0.347599     0.159248     0.247358  Biso 1.000000     H
    H   1.0     0.215907     0.134123     0.382511  Biso 1.000000     H
    H   1.0     0.661466     0.739062     0.566139  Biso 1.000000     H
    H   1.0     0.526010     0.621040     0.576947  Biso 1.000000     H
    H   1.0     0.713000     0.559848     0.425244  Biso 1.000000     H
    H   1.0     0.856097     0.679073     0.405014  Biso 1.000000     H
    H   1.0     0.412765     0.267529     0.804007  Biso 1.000000     H
    H   1.0     0.501651     0.187247     0.756078  Biso 1.000000     H
    H   1.0     0.596220     0.246955     0.591205  Biso 1.000000     H
    H   1.0     0.598607     0.382092     0.482186  Biso 1.000000     H
    H   1.0     0.227085     0.565237     0.695488  Biso 1.000000     H
    H   1.0     0.101942     0.575960     0.802634  Biso 1.000000     H
    H   1.0     0.139043     0.425740     0.014825  Biso 1.000000     H
    H   1.0     0.262719     0.405880     0.915811  Biso 1.000000     H
    H   1.0     0.217361     0.803715     0.928487  Biso 1.000000     H
    H   1.0     0.258374     0.755734     0.056652  Biso 1.000000     H
    H   1.0     0.187436     0.591012     0.162026  Biso 1.000000     H
    H   1.0     0.080374     0.482158     0.136005  Biso 1.000000     H
    H   1.0     0.921844     0.695843     0.739969  Biso 1.000000     H
    H   1.0     0.904191     0.803029     0.621763  Biso 1.000000     H
    H   1.0     0.154185     0.013911     0.559077  Biso 1.000000     H
    H   1.0     0.178600     0.914890     0.678197  Biso 1.000000     H
    H   1.0     0.911859     0.195994     0.732818  Biso 1.000000     H
    H   1.0     0.000000     0.243564     0.813329  Biso 1.000000     H
    H   1.0     0.095341     0.408248     0.753765  Biso 1.000000     H
    H   1.0     0.098003     0.517426     0.618501  Biso 1.000000     H
    H   1.0     0.727415     0.304745     0.433771  Biso 1.000000     H
    H   1.0     0.602269     0.197460     0.423346  Biso 1.000000     H
    H   1.0     0.638664     0.985501     0.574932  Biso 1.000000     H
    H   1.0     0.762174     0.084653     0.594709  Biso 1.000000     H
    H   1.0     0.717649     0.071894     0.195923  Biso 1.000000     H
    H   1.0     0.759162     0.944130     0.243787  Biso 1.000000     H
    H   1.0     0.688323     0.838778     0.408601  Biso 1.000000     H
    H   1.0     0.580902     0.864456     0.517677  Biso 1.000000     H
    H   1.0     0.421150     0.259364     0.304109  Biso 1.000000     H
    H   1.0     0.403771     0.377822     0.196952  Biso 1.000000     H
    H   1.0     0.654199     0.440961     0.985972  Biso 1.000000     H
    H   1.0     0.678505     0.321735     0.084990  Biso 1.000000     H
    H   1.0     0.643444     0.733034     0.072215  Biso 1.000000     H
    H   1.0     0.812220     0.812656     0.944942  Biso 1.000000     H
    H   1.0     0.847696     0.752278     0.840084  Biso 1.000000     H
    H   1.0     0.715803     0.617191     0.865577  Biso 1.000000     H
    H   1.0     0.162199     0.434053     0.260983  Biso 1.000000     H
    H   1.0     0.026440     0.423140     0.378986  Biso 1.000000     H
    H   1.0     0.212843     0.574176     0.441004  Biso 1.000000     H
    H   1.0     0.356183     0.594409     0.321897  Biso 1.000000     H
    H   1.0     0.088115     0.804095     0.267159  Biso 1.000000     H
    H   1.0    -0.000653     0.756485     0.186651  Biso 1.000000     H
    H   1.0     0.904667     0.591797     0.246239  Biso 1.000000     H
    H   1.0     0.902011     0.482650     0.381516  Biso 1.000000     H
    H   1.0     0.272541     0.695309     0.566279  Biso 1.000000     H
    H   1.0     0.397704     0.802601     0.576679  Biso 1.000000     H
    H   1.0     0.361349     0.014566     0.425044  Biso 1.000000     H
    H   1.0     0.237824     0.915406     0.405285  Biso 1.000000     H
    H   1.0     0.282324     0.928135     0.804082  Biso 1.000000     H
    H   1.0     0.240798     0.055892     0.756249  Biso 1.000000     H
    H   1.0     0.311669     0.161294     0.591441  Biso 1.000000     H
    H   1.0     0.419100     0.135643     0.482342  Biso 1.000000     H
    H   1.0     0.578861     0.740733     0.695896  Biso 1.000000     H
    H   1.0     0.596251     0.622276     0.803048  Biso 1.000000     H
    H   1.0     0.345790     0.559096     0.014029  Biso 1.000000     H
    H   1.0     0.321486     0.678325     0.915015  Biso 1.000000     H
    H   1.0     0.356596     0.267009     0.927820  Biso 1.000000     H
    H   1.0     0.187802     0.187394     0.055068  Biso 1.000000     H
    H   1.0     0.152291     0.247814     0.159881  Biso 1.000000     H
    H   1.0     0.284170     0.382909     0.134397  Biso 1.000000     H
    H   1.0     0.837812     0.565901     0.739100  Biso 1.000000     H
    H   1.0     0.973554     0.576791     0.621104  Biso 1.000000     H
    H   1.0     0.787165     0.426011     0.558898  Biso 1.000000     H
    H   1.0     0.643823     0.405737     0.678037  Biso 1.000000     H
    C   1.0     0.006913     0.100535     0.588043  Biso 1.000000     C
    C   1.0     0.146159     0.203566     0.533304  Biso 1.000000     C
    C   1.0     0.907457     0.033338     0.637123  Biso 1.000000     C
    C   1.0     0.837293     0.024055     0.711538  Biso 1.000000     C
    C   1.0     0.744356     0.954369     0.754643  Biso 1.000000     C
    C   1.0     0.724093     0.896254     0.721218  Biso 1.000000     C
    C   1.0     0.796881     0.909340     0.646229  Biso 1.000000     C
    C   1.0     0.228155     0.278475     0.517792  Biso 1.000000     C
    C   1.0     0.323917     0.299083     0.466437  Biso 1.000000     C
    C   1.0     0.400122     0.365306     0.460032  Biso 1.000000     C
    C   1.0     0.295894     0.398708     0.545079  Biso 1.000000     C
    C   1.0     0.216064     0.332220     0.555935  Biso 1.000000     C
    C   1.0     0.593353     0.587752     0.311879  Biso 1.000000     C
    C   1.0     0.678378     0.533167     0.263023  Biso 1.000000     C
    C   1.0     0.542819     0.636919     0.330531  Biso 1.000000     C
    C   1.0     0.546334     0.711264     0.265986  Biso 1.000000     C
    C   1.0     0.496618     0.754586     0.293067  Biso 1.000000     C
    C   1.0     0.443778     0.721437     0.384482  Biso 1.000000     C
    C   1.0     0.442229     0.646470     0.445797  Biso 1.000000     C
    C   1.0     0.745266     0.517828     0.203519  Biso 1.000000     C
    C   1.0     0.790497     0.467038     0.234064  Biso 1.000000     C
    C   1.0     0.860617     0.460732     0.174302  Biso 1.000000     C
    C   1.0     0.840375     0.544888     0.056227  Biso 1.000000     C
    C   1.0     0.770974     0.555568     0.111849  Biso 1.000000     C
    C   1.0     0.905613     0.312096     0.100046  Biso 1.000000     C
    C   1.0     0.941914     0.263261     0.203403  Biso 1.000000     C
    C   1.0     0.873552     0.330744     0.032331  Biso 1.000000     C
    C   1.0     0.812117     0.266275     0.022712  Biso 1.000000     C
    C   1.0     0.789362     0.293350     0.952383  Biso 1.000000     C
    C   1.0     0.828239     0.384680     0.894000  Biso 1.000000     C
    C   1.0     0.888318     0.445932     0.907522  Biso 1.000000     C
    C   1.0     0.949208     0.203813     0.278344  Biso 1.000000     C
    C   1.0     0.025137     0.234028     0.298450  Biso 1.000000     C
    C   1.0     0.035285     0.174250     0.364719  Biso 1.000000     C
    C   1.0     0.896533     0.056900     0.399073  Biso 1.000000     C
    C   1.0     0.882921     0.112542     0.332608  Biso 1.000000     C
    C   1.0     0.993099     0.899544     0.411946  Biso 1.000000     C
    C   1.0     0.853854     0.796510     0.466690  Biso 1.000000     C
    C   1.0     0.092554     0.966742     0.362866  Biso 1.000000     C
    C   1.0     0.162722     0.976023     0.288455  Biso 1.000000     C
    C   1.0     0.255663     0.045697     0.245368  Biso 1.000000     C
    C   1.0     0.275927     0.103803     0.278802  Biso 1.000000     C
    C   1.0     0.203131     0.090721     0.353783  Biso 1.000000     C
    C   1.0     0.771858     0.721609     0.482194  Biso 1.000000     C
    C   1.0     0.676099     0.701025     0.533531  Biso 1.000000     C
    C   1.0     0.599885     0.634817     0.539928  Biso 1.000000     C
    C   1.0     0.704101     0.601367     0.454921  Biso 1.000000     C
    C   1.0     0.783935     0.667845     0.444073  Biso 1.000000     C
    C   1.0     0.406673     0.412381     0.688082  Biso 1.000000     C
    C   1.0     0.321614     0.466926     0.736961  Biso 1.000000     C
    C   1.0     0.457212     0.363217     0.669435  Biso 1.000000     C
    C   1.0     0.453695     0.288884     0.733999  Biso 1.000000     C
    C   1.0     0.503366     0.245520     0.706948  Biso 1.000000     C
    C   1.0     0.556176     0.278627     0.615537  Biso 1.000000     C
    C   1.0     0.557731     0.353582     0.554197  Biso 1.000000     C
    C   1.0     0.254711     0.482241     0.796482  Biso 1.000000     C
    C   1.0     0.209463     0.533019     0.765952  Biso 1.000000     C
    C   1.0     0.139353     0.539328     0.825719  Biso 1.000000     C
    C   1.0     0.159608     0.455170     0.943783  Biso 1.000000     C
    C   1.0     0.229012     0.444499     0.888150  Biso 1.000000     C
    C   1.0     0.094403     0.687962     0.899947  Biso 1.000000     C
    C   1.0     0.058087     0.736799     0.796600  Biso 1.000000     C
    C   1.0     0.126464     0.669310     0.967663  Biso 1.000000     C
    C   1.0     0.187912     0.733775     0.977277  Biso 1.000000     C
    C   1.0     0.210623     0.706695     0.047637  Biso 1.000000     C
    C   1.0     0.171705     0.615366     0.106044  Biso 1.000000     C
    C   1.0     0.111620     0.554119     0.092520  Biso 1.000000     C
    C   1.0     0.050798     0.796249     0.721657  Biso 1.000000     C
    C   1.0     0.974876     0.766038     0.701541  Biso 1.000000     C
    C   1.0     0.964735     0.825819     0.635268  Biso 1.000000     C
    C   1.0     0.103477     0.943166     0.600930  Biso 1.000000     C
    C   1.0     0.117086     0.887521     0.667397  Biso 1.000000     C
    C   1.0     0.906235     0.312089     0.587717  Biso 1.000000     C
    C   1.0     0.821453     0.263415     0.532873  Biso 1.000000     C
    C   1.0     0.956592     0.330556     0.637080  Biso 1.000000     C
    C   1.0     0.952900     0.265912     0.711491  Biso 1.000000     C
    C   1.0     0.000000     0.292761     0.754999  Biso 1.000000     C
    C   1.0     0.055379     0.384065     0.721966  Biso 1.000000     C
    C   1.0     0.057079     0.445494     0.646946  Biso 1.000000     C
    C   1.0     0.754618     0.203899     0.517542  Biso 1.000000     C
    C   1.0     0.709631     0.234306     0.466395  Biso 1.000000     C
    C   1.0     0.639513     0.174445     0.460227  Biso 1.000000     C
    C   1.0     0.659345     0.056516     0.545164  Biso 1.000000     C
    C   1.0     0.728684     0.112233     0.555766  Biso 1.000000     C
    C   1.0     0.594342     0.100053     0.311909  Biso 1.000000     C
    C   1.0     0.557763     0.203153     0.263114  Biso 1.000000     C
    C   1.0     0.626644     0.032551     0.330491  Biso 1.000000     C
    C   1.0     0.688269     0.023125     0.265898  Biso 1.000000     C
    C   1.0     0.711241     0.952985     0.292917  Biso 1.000000     C
    C   1.0     0.672385     0.894596     0.384302  Biso 1.000000     C
    C   1.0     0.612100     0.907927     0.445672  Biso 1.000000     C
    C   1.0     0.550439     0.278035     0.203660  Biso 1.000000     C
    C   1.0     0.474370     0.297981     0.233910  Biso 1.000000     C
    C   1.0     0.464366     0.364371     0.174146  Biso 1.000000     C
    C   1.0     0.603379     0.398985     0.056742  Biso 1.000000     C
    C   1.0     0.616904     0.332449     0.112370  Biso 1.000000     C
    C   1.0     0.493521     0.587994     0.100600  Biso 1.000000     C
    C   1.0     0.354346     0.533277     0.203864  Biso 1.000000     C
    C   1.0     0.592925     0.636999     0.033204  Biso 1.000000     C
    C   1.0     0.663237     0.711364     0.023734  Biso 1.000000     C
    C   1.0     0.756067     0.754372     0.953827  Biso 1.000000     C
    C   1.0     0.776111     0.720899     0.895697  Biso 1.000000     C
    C   1.0     0.703202     0.645953     0.908987  Biso 1.000000     C
    C   1.0     0.272289     0.517683     0.278854  Biso 1.000000     C
    C   1.0     0.176608     0.466480     0.299220  Biso 1.000000     C
    C   1.0     0.100245     0.460035     0.365393  Biso 1.000000     C
    C   1.0     0.204137     0.544674     0.399305  Biso 1.000000     C
    C   1.0     0.284114     0.555533     0.332880  Biso 1.000000     C
    C   1.0     0.093731     0.688001     0.412301  Biso 1.000000     C
    C   1.0     0.178521     0.736656     0.467148  Biso 1.000000     C
    C   1.0     0.043391     0.669538     0.362924  Biso 1.000000     C
    C   1.0     0.047088     0.734170     0.288499  Biso 1.000000     C
    C   1.0    -0.002506     0.707301     0.244999  Biso 1.000000     C
    C   1.0     0.944631     0.615995     0.278029  Biso 1.000000     C
    C   1.0     0.942923     0.554584     0.353066  Biso 1.000000     C
    C   1.0     0.245359     0.796162     0.482483  Biso 1.000000     C
    C   1.0     0.290339     0.765751     0.533637  Biso 1.000000     C
    C   1.0     0.360463     0.825617     0.539795  Biso 1.000000     C
    C   1.0     0.340652     0.943549     0.454832  Biso 1.000000     C
    C   1.0     0.271308     0.887830     0.444238  Biso 1.000000     C
    C   1.0     0.405645     0.900010     0.688086  Biso 1.000000     C
    C   1.0     0.442234     0.796923     0.736888  Biso 1.000000     C
    C   1.0     0.373344     0.967512     0.669509  Biso 1.000000     C
    C   1.0     0.311707     0.976920     0.734112  Biso 1.000000     C
    C   1.0     0.288733     0.047059     0.707107  Biso 1.000000     C
    C   1.0     0.327608     0.105473     0.615725  Biso 1.000000     C
    C   1.0     0.387894     0.092153     0.554344  Biso 1.000000     C
    C   1.0     0.449561     0.722044     0.796345  Biso 1.000000     C
    C   1.0     0.525635     0.702105     0.766093  Biso 1.000000     C
    C   1.0     0.535649     0.635719     0.825852  Biso 1.000000     C
    C   1.0     0.396615     0.601080     0.943260  Biso 1.000000     C
    C   1.0     0.383088     0.667614     0.887632  Biso 1.000000     C
    C   1.0     0.506493     0.412065     0.899417  Biso 1.000000     C
    C   1.0     0.645661     0.466779     0.796147  Biso 1.000000     C
    C   1.0     0.407085     0.363069     0.966806  Biso 1.000000     C
    C   1.0     0.336782     0.288694     0.976284  Biso 1.000000     C
    C   1.0     0.243945     0.245687     0.046182  Biso 1.000000     C
    C   1.0     0.223883     0.279191     0.104278  Biso 1.000000     C
    C   1.0     0.296787     0.354138     0.090997  Biso 1.000000     C
    C   1.0     0.727718     0.482365     0.721156  Biso 1.000000     C
    C   1.0     0.823395     0.533508     0.700838  Biso 1.000000     C
    C   1.0     0.899752     0.539955     0.634657  Biso 1.000000     C
    C   1.0     0.795870     0.455460     0.600639  Biso 1.000000     C
    C   1.0     0.715889     0.444572     0.667086  Biso 1.000000     C
    N   1.0     0.065081     0.094193     0.521138  Biso 1.000000     N
    N   1.0     0.155616     0.160371     0.485526  Biso 1.000000     N
    N   1.0     0.054464     0.168232     0.597972  Biso 1.000000     N
    N   1.0     0.887901     0.976317     0.604007  Biso 1.000000     N
    N   1.0     0.388196     0.414886     0.499911  Biso 1.000000     N
    N   1.0     0.585376     0.520999     0.384651  Biso 1.000000     N
    N   1.0     0.640622     0.485491     0.353720  Biso 1.000000     N
    N   1.0     0.650640     0.597655     0.234198  Biso 1.000000     N
    N   1.0     0.490939     0.604047     0.420568  Biso 1.000000     N
    N   1.0     0.888169     0.500211     0.085068  Biso 1.000000     N
    N   1.0     0.970556     0.384758     0.093973  Biso 1.000000     N
    N   1.0     0.994982     0.353835     0.160335  Biso 1.000000     N
    N   1.0     0.885204     0.234495     0.167814  Biso 1.000000     N
    N   1.0     0.911845     0.420702     0.975142  Biso 1.000000     N
    N   1.0     0.973277     0.085336     0.414775  Biso 1.000000     N
    N   1.0     0.934931     0.905882     0.478857  Biso 1.000000     N
    N   1.0     0.844396     0.839710     0.514463  Biso 1.000000     N
    N   1.0     0.945547     0.831846     0.402019  Biso 1.000000     N
    N   1.0     0.112108     0.023755     0.395991  Biso 1.000000     N
    N   1.0     0.611808     0.585225     0.500064  Biso 1.000000     N
    N   1.0     0.414611     0.479112     0.615320  Biso 1.000000     N
    N   1.0     0.359342     0.514598     0.646265  Biso 1.000000     N
    N   1.0     0.349390     0.402466     0.765771  Biso 1.000000     N
    N   1.0     0.509068     0.396046     0.579406  Biso 1.000000     N
    N   1.0     0.111811     0.499848     0.914951  Biso 1.000000     N
    N   1.0     0.029418     0.615302     0.906051  Biso 1.000000     N
    N   1.0     0.004986     0.646226     0.839694  Biso 1.000000     N
    N   1.0     0.114835     0.765560     0.832161  Biso 1.000000     N
    N   1.0     0.088130     0.579352     0.024875  Biso 1.000000     N
    N   1.0     0.026738     0.914735     0.585219  Biso 1.000000     N
    N   1.0     0.914524     0.384877     0.520751  Biso 1.000000     N
    N   1.0     0.859435     0.354063     0.485057  Biso 1.000000     N
    N   1.0     0.848902     0.234519     0.597607  Biso 1.000000     N
    N   1.0     0.008533     0.420473     0.604318  Biso 1.000000     N
    N   1.0     0.611764     0.085236     0.500134  Biso 1.000000     N
    N   1.0     0.529255     0.093843     0.384665  Biso 1.000000     N
    N   1.0     0.504642     0.160038     0.353765  Biso 1.000000     N
    N   1.0     0.614680     0.167753     0.234279  Biso 1.000000     N
    N   1.0     0.588365     0.975371     0.420507  Biso 1.000000     N
    N   1.0     0.526592     0.414637     0.085220  Biso 1.000000     N
    N   1.0     0.435262     0.521184     0.094282  Biso 1.000000     N
    N   1.0     0.344794     0.485603     0.160590  Biso 1.000000     N
    N   1.0     0.446055     0.597874     0.168440  Biso 1.000000     N
    N   1.0     0.612266     0.603833     0.976160  Biso 1.000000     N
    N   1.0     0.111947     0.499755     0.415148  Biso 1.000000     N
    N   1.0     0.085437     0.615198     0.479259  Biso 1.000000     N
    N   1.0     0.140529     0.646007     0.514952  Biso 1.000000     N
    N   1.0     0.151078     0.765563     0.402413  Biso 1.000000     N
    N   1.0     0.991463     0.579616     0.395692  Biso 1.000000     N
    N   1.0     0.388229     0.914829     0.499868  Biso 1.000000     N
    N   1.0     0.470730     0.906218     0.615333  Biso 1.000000     N
    N   1.0     0.495352     0.840029     0.646237  Biso 1.000000     N
    N   1.0     0.385312     0.832319     0.765720  Biso 1.000000     N
    N   1.0     0.411625     0.024704     0.579497  Biso 1.000000     N
    N   1.0     0.473415     0.585445     0.914775  Biso 1.000000     N
    N   1.0     0.564752     0.478884     0.905720  Biso 1.000000     N
    N   1.0     0.655221     0.514469     0.839404  Biso 1.000000     N
    N   1.0     0.553954     0.402175     0.831580  Biso 1.000000     N
    N   1.0     0.387731     0.396246     0.023838  Biso 1.000000     N
    N   1.0     0.888057     0.500312     0.584840  Biso 1.000000     N
   Fe   1.0     0.000005     0.000030     0.499996  Biso 1.000000    Fe
   Fe   1.0     0.500001     0.500052     0.499982  Biso 1.000000    Fe
   Fe   1.0    -0.000004     0.500032     0.000006  Biso 1.000000    Fe
   Fe   1.0    -0.000002     0.500041     0.499997  Biso 1.000000    Fe
   Fe   1.0     0.499996     0.000031     0.499998  Biso 1.000000    Fe
   Fe   1.0     0.500007     0.500045    -0.000005  Biso 1.000000    Fe
