#======================================================================

# CRYSTAL DATA

#----------------------------------------------------------------------

data_VESTA_phase_1


_pd_phase_name                         MOF
_cell_length_a                         13.50200
_cell_length_b                         13.46700
_cell_length_c                         14.30800
_cell_angle_alpha                      105.92500
_cell_angle_beta                       104.22900
_cell_angle_gamma                      101.82300
_symmetry_space_group_name_H-M         "P 1"
_symmetry_Int_Tables_number            1

loop_
_symmetry_equiv_pos_as_xyz
   "x, y, z"

loop_
   _atom_site_label
   _atom_site_occupancy
   _atom_site_fract_x
   _atom_site_fract_y
   _atom_site_fract_z
   _atom_site_adp_type
   _atom_site_B_iso_or_equiv
   _atom_site_type_symbol
    H   1.0     0.249111     0.110617     0.187229  Biso 1.000000     H
    H   1.0     0.298067     0.030277     0.345605  Biso 1.000000     H
    H   1.0     0.000000     0.866034     0.171006  Biso 1.000000     H
    H   1.0     0.248826     0.888326     0.413914  Biso 1.000000     H
    H   1.0     0.110215     0.839644     0.348409  Biso 1.000000     H
    H   1.0     0.200653     0.692120     0.341949  Biso 1.000000     H
    H   1.0     0.278212     0.746546     0.272919  Biso 1.000000     H
    H   1.0     0.254100     0.566546     0.234655  Biso 1.000000     H
    H   1.0     0.250506     0.396771     0.116083  Biso 1.000000     H
    H   1.0     0.936907     0.666386     0.057651  Biso 1.000000     H
    H   1.0     0.226313     0.214026     0.062502  Biso 1.000000     H
    H   1.0     0.358995     0.206319    -0.057116  Biso 1.000000     H
    H   1.0     0.364017     0.000000     0.838588  Biso 1.000000     H
    H   1.0     0.552523     0.220078     0.811519  Biso 1.000000     H
    H   1.0     0.456903     0.093047     0.769540  Biso 1.000000     H
    H   1.0     0.453160     0.180268     0.631893  Biso 1.000000     H
    H   1.0     0.412201     0.284510     0.706430  Biso 1.000000     H
    H   1.0     0.342989     0.266761     0.542085  Biso 1.000000     H
    H   1.0     0.207845     0.288113     0.408001  Biso 1.000000     H
    H   1.0     0.224113     0.976536     0.650539  Biso 1.000000     H
    H   1.0     0.119520     0.238888     0.211329  Biso 1.000000     H
    H   1.0     0.016688     0.396271     0.239990  Biso 1.000000     H
    H   1.0     0.000000     0.334205     0.949323  Biso 1.000000     H
    H   1.0     0.848858     0.436952     0.111791  Biso 1.000000     H
    H   1.0     0.785934     0.340953    -0.012695  Biso 1.000000     H
    H   1.0     0.663488     0.362047     0.096784  Biso 1.000000     H
    H   1.0     0.742862     0.310768     0.180921  Biso 1.000000     H
    H   1.0     0.575865     0.269438     0.186038  Biso 1.000000     H
    H   1.0     0.433574     0.156068     0.219507  Biso 1.000000     H
    H   1.0     0.801629     0.213163     0.894394  Biso 1.000000     H
    H   1.0     0.971650     0.000000     0.816015  Biso 1.000000     H
    H   1.0     0.922718     0.000000     0.657604  Biso 1.000000     H
    H   1.0     0.200347     0.288294     0.832197  Biso 1.000000     H
    H   1.0     0.971980     0.265902     0.589227  Biso 1.000000     H
    H   1.0     0.000000     0.314617     0.654752  Biso 1.000000     H
    H   1.0     0.000000     0.462124     0.661104  Biso 1.000000     H
    H   1.0     0.942583     0.407757     0.730182  Biso 1.000000     H
    H   1.0     0.966683     0.587742     0.768446  Biso 1.000000     H
    H   1.0     0.970242     0.757486     0.887044  Biso 1.000000     H
    H   1.0     0.283860     0.487875     0.945467  Biso 1.000000     H
    H   1.0     0.994637     0.940183     0.940567  Biso 1.000000     H
    H   1.0     0.861559     0.947830     0.000000  Biso 1.000000     H
    H   1.0     0.856481     0.095467     0.164396  Biso 1.000000     H
    H   1.0     0.667841     0.933976     0.191140  Biso 1.000000     H
    H   1.0     0.763396     0.000000     0.233151  Biso 1.000000     H
    H   1.0     0.767421     0.974091     0.370907  Biso 1.000000     H
    H   1.0     0.808000     0.869564     0.296280  Biso 1.000000     H
    H   1.0     0.877375     0.887406     0.460578  Biso 1.000000     H
    H   1.0     0.000000     0.866281     0.594893  Biso 1.000000     H
    H   1.0     0.996218     0.177730     0.352255  Biso 1.000000     H
    H   1.0     0.000000     0.915428     0.791888  Biso 1.000000     H
    H   1.0     0.000000     0.758075     0.763217  Biso 1.000000     H
    H   1.0     0.214792     0.820090     0.053917  Biso 1.000000     H
    H   1.0     0.371949     0.717368     0.891404  Biso 1.000000     H
    H   1.0     0.434858     0.813340     0.000000  Biso 1.000000     H
    H   1.0     0.557301     0.792264     0.906392  Biso 1.000000     H
    H   1.0     0.477949     0.843642     0.822340  Biso 1.000000     H
    H   1.0     0.644880     0.884937     0.817164  Biso 1.000000     H
    H   1.0     0.787058     0.998351     0.783601  Biso 1.000000     H
    H   1.0     0.419005     0.941255     0.108726  Biso 1.000000     H
    C   1.0     0.198249     0.050691     0.205803  Biso 1.000000     C
    C   1.0     0.224305     0.010510     0.283969  Biso 1.000000     C
    C   1.0     0.122445     0.916964     0.195580  Biso 1.000000     C
    C   1.0     0.188866     0.847988     0.337567  Biso 1.000000     C
    C   1.0     0.201510     0.737820     0.288730  Biso 1.000000     C
    C   1.0     0.117878     0.585921     0.132125  Biso 1.000000     C
    C   1.0     0.193723     0.534828     0.159236  Biso 1.000000     C
    C   1.0     0.191471     0.436099     0.089853  Biso 1.000000     C
    C   1.0     0.035191     0.539755     0.034527  Biso 1.000000     C
    C   1.0     0.000000     0.764586     0.000000  Biso 1.000000     C
    C   1.0     0.221306     0.149014    -0.004563  Biso 1.000000     C
    C   1.0     0.288232     0.146864    -0.062924  Biso 1.000000     C
    C   1.0     0.338668     0.162061     0.885507  Biso 1.000000     C
    C   1.0     0.466367     0.179533     0.785246  Biso 1.000000     C
    C   1.0     0.411201     0.199204     0.688676  Biso 1.000000     C
    C   1.0     0.232582     0.146844     0.571331  Biso 1.000000     C
    C   1.0     0.260673     0.219352     0.523383  Biso 1.000000     C
    C   1.0     0.181879     0.230726     0.444496  Biso 1.000000     C
    C   1.0     0.124539     0.081132     0.541701  Biso 1.000000     C
    C   1.0     0.000000     0.984668     0.588938  Biso 1.000000     C
    C   1.0     0.047916     0.243246     0.160263  Biso 1.000000     C
    C   1.0    -0.002508     0.322109     0.176409  Biso 1.000000     C
    C   1.0     0.893973     0.200847     0.020965  Biso 1.000000     C
    C   1.0     0.811424     0.350354     0.069066  Biso 1.000000     C
    C   1.0     0.716017     0.309408     0.101143  Biso 1.000000     C
    C   1.0     0.578821     0.143058     0.056227  Biso 1.000000     C
    C   1.0     0.543281     0.185014     0.137076  Biso 1.000000     C
    C   1.0     0.460361     0.118760     0.156161  Biso 1.000000     C
    C   1.0     0.531691     0.032924    -0.010585  Biso 1.000000     C
    C   1.0     0.807082     0.000000     0.908510  Biso 1.000000     C
    C   1.0     0.000000     0.000000     0.797423  Biso 1.000000     C
    C   1.0     0.996479     0.000000     0.719242  Biso 1.000000     C
    C   1.0     0.000000     0.237364     0.807626  Biso 1.000000     C
    C   1.0     0.000000     0.306281     0.665576  Biso 1.000000     C
    C   1.0     0.000000     0.416460     0.714354  Biso 1.000000     C
    C   1.0     0.000000     0.568364     0.870962  Biso 1.000000     C
    C   1.0     0.000000     0.619453     0.843867  Biso 1.000000     C
    C   1.0     0.000000     0.718167     0.913263  Biso 1.000000     C
    C   1.0     0.000000     0.614520     0.968568  Biso 1.000000     C
    C   1.0     0.114604     0.389681    -0.005515  Biso 1.000000     C
    C   1.0     0.999493     0.000000     0.000000  Biso 1.000000     C
    C   1.0     0.932369     0.000000     0.000000  Biso 1.000000     C
    C   1.0     0.881900     0.992154     0.117442  Biso 1.000000     C
    C   1.0     0.753984     0.974580     0.217443  Biso 1.000000     C
    C   1.0     0.809191     0.954920     0.313996  Biso 1.000000     C
    C   1.0     0.987810     0.000000     0.431281  Biso 1.000000     C
    C   1.0     0.959689     0.934844     0.479320  Biso 1.000000     C
    C   1.0     0.000000     0.923565     0.558302  Biso 1.000000     C
    C   1.0     0.000000     0.000000     0.460990  Biso 1.000000     C
    C   1.0     0.076859     0.169570     0.413820  Biso 1.000000     C
    C   1.0     0.000000     0.911084     0.842961  Biso 1.000000     C
    C   1.0     0.000000     0.832226     0.826808  Biso 1.000000     C
    C   1.0     0.326829     0.953459     0.982268  Biso 1.000000     C
    C   1.0     0.409381     0.803962     0.934150  Biso 1.000000     C
    C   1.0     0.504792     0.844929     0.902093  Biso 1.000000     C
    C   1.0     0.641906     0.000000     0.946969  Biso 1.000000     C
    C   1.0     0.677420     0.969372     0.866096  Biso 1.000000     C
    C   1.0     0.760289     0.000000     0.846967  Biso 1.000000     C
    C   1.0     0.688978     0.000000     0.000000  Biso 1.000000     C
    C   1.0     0.413566     0.012040     0.094617  Biso 1.000000     C
    N   1.0     0.160808     0.983793     0.150906  Biso 1.000000     N
    N   1.0     0.200976     0.917897     0.276565  Biso 1.000000     N
    N   1.0     0.317307     0.223728     0.963918  Biso 1.000000     N
    N   1.0     0.424481     0.218340     0.868731  Biso 1.000000     N
    N   1.0     0.974797     0.167716     0.062945  Biso 1.000000     N
    N   1.0     0.892214     0.294335     0.087140  Biso 1.000000     N
    N   1.0     0.000000     0.170556     0.852317  Biso 1.000000     N
    N   1.0     0.000000     0.236427     0.726630  Biso 1.000000     N
    N   1.0     0.903465     0.930504     0.039170  Biso 1.000000     N
    N   1.0     0.795970     0.935840     0.134026  Biso 1.000000     N
    N   1.0     0.246007     0.986594     0.940291  Biso 1.000000     N
    N   1.0     0.328594     0.859984     0.916082  Biso 1.000000     N
    N   1.0     0.344184     0.328065     0.301430  Biso 1.000000     N
    N   1.0     0.876662     0.826349     0.701929  Biso 1.000000     N
    O   1.0     0.114602     0.682614     0.194966  Biso 1.000000     O
    O   1.0     0.303557     0.130489     0.649185  Biso 1.000000     O
    O   1.0     0.660087     0.201420     0.032871  Biso 1.000000     O
    O   1.0     0.000000     0.471687     0.808097  Biso 1.000000     O
    O   1.0     0.916912     0.000000     0.353223  Biso 1.000000     O
    O   1.0     0.560760     0.952887     0.970423  Biso 1.000000     O
    O   1.0     0.389939     0.279468     0.355724  Biso 1.000000     O
    O   1.0     0.352155     0.315697     0.211706  Biso 1.000000     O
    O   1.0     0.288976     0.387264     0.334699  Biso 1.000000     O
    O   1.0     0.830769     0.874861     0.647638  Biso 1.000000     O
    O   1.0     0.868570     0.838485     0.791577  Biso 1.000000     O
    O   1.0     0.932190     0.767506     0.668741  Biso 1.000000     O
   Zn   1.0    -0.000009     0.000028    -0.000089  Biso 1.000000    Zn
