#======================================================================

# CRYSTAL DATA

#----------------------------------------------------------------------

data_VESTA_phase_1


_pd_phase_name                         MOF
_cell_length_a                         23.41300
_cell_length_b                         12.82600
_cell_length_c                         19.63400
_cell_angle_alpha                      89.79500
_cell_angle_beta                       88.47100
_cell_angle_gamma                      90.40200
_symmetry_space_group_name_H-M         "P 1"
_symmetry_Int_Tables_number            1

loop_
_symmetry_equiv_pos_as_xyz
   "x, y, z"

loop_
   _atom_site_label
   _atom_site_occupancy
   _atom_site_fract_x
   _atom_site_fract_y
   _atom_site_fract_z
   _atom_site_adp_type
   _atom_site_B_iso_or_equiv
   _atom_site_type_symbol
    H   1.0     0.355263     0.426988     0.623263  Biso 1.000000     H
    H   1.0     0.846720     0.429590     0.610346  Biso 1.000000     H
    H   1.0     0.378471     0.499770     0.695225  Biso 1.000000     H
    H   1.0     0.873802     0.492394     0.684344  Biso 1.000000     H
    H   1.0     0.345549     0.565265     0.626028  Biso 1.000000     H
    H   1.0     0.841820     0.568225     0.619063  Biso 1.000000     H
    H   1.0     0.179137     0.221477     0.840323  Biso 1.000000     H
    H   1.0     0.669460     0.223544     0.825441  Biso 1.000000     H
    H   1.0     0.251804     0.248462     0.859780  Biso 1.000000     H
    H   1.0     0.743828     0.238437     0.841393  Biso 1.000000     H
    H   1.0     0.236120     0.175250     0.785004  Biso 1.000000     H
    H   1.0     0.721963     0.175936     0.765172  Biso 1.000000     H
    H   1.0     0.221346     0.658076     0.871211  Biso 1.000000     H
    H   1.0     0.726002     0.647191     0.874006  Biso 1.000000     H
    H   1.0     0.146929     0.641114     0.858277  Biso 1.000000     H
    H   1.0     0.650836     0.644402     0.860256  Biso 1.000000     H
    H   1.0     0.188016     0.725238     0.803225  Biso 1.000000     H
    H   1.0     0.696074     0.727095     0.809471  Biso 1.000000     H
    H   1.0     0.079632     0.431913     0.640531  Biso 1.000000     H
    H   1.0     0.570948     0.465253     0.640898  Biso 1.000000     H
    H   1.0     0.130021     0.375959     0.580464  Biso 1.000000     H
    H   1.0     0.616416     0.407583     0.576571  Biso 1.000000     H
    H   1.0     0.121702     0.514529     0.585313  Biso 1.000000     H
    H   1.0     0.613860     0.546861     0.585877  Biso 1.000000     H
    H   1.0     0.108010     0.067321     0.906232  Biso 1.000000     H
    H   1.0     0.602241     0.076719     0.871888  Biso 1.000000     H
    H   1.0     0.138806     0.996116     0.836286  Biso 1.000000     H
    H   1.0     0.624936     0.000000     0.798880  Biso 1.000000     H
    H   1.0     0.097993     0.928786     0.901124  Biso 1.000000     H
    H   1.0     0.590858     0.938701     0.870106  Biso 1.000000     H
    H   1.0     0.430768     0.283421     0.662799  Biso 1.000000     H
    H   1.0     0.958191     0.269380     0.671001  Biso 1.000000     H
    H   1.0     0.032239     0.241479     0.657122  Biso 1.000000     H
    H   1.0     0.503406     0.255500     0.640148  Biso 1.000000     H
    H   1.0     0.009840     0.318571     0.729049  Biso 1.000000     H
    H   1.0     0.487484     0.329609     0.715449  Biso 1.000000     H
    H   1.0    -0.003296     0.835906     0.647099  Biso 1.000000     H
    H   1.0     0.464947     0.846721     0.631856  Biso 1.000000     H
    H   1.0     0.390884     0.864966     0.650929  Biso 1.000000     H
    H   1.0     0.921374     0.854976     0.656591  Biso 1.000000     H
    H   1.0     0.431729     0.780260     0.702613  Biso 1.000000     H
    H   1.0     0.957150     0.770080     0.713583  Biso 1.000000     H
    H   1.0     0.326972     0.081526     0.869617  Biso 1.000000     H
    H   1.0     0.836884     0.072698     0.865593  Biso 1.000000     H
    H   1.0     0.378289     0.133548     0.927347  Biso 1.000000     H
    H   1.0     0.882800     0.125906     0.928858  Biso 1.000000     H
    H   1.0     0.366332     0.995732     0.922398  Biso 1.000000     H
    H   1.0     0.871262     0.987767     0.923740  Biso 1.000000     H
    H   1.0     0.186930     0.544768     0.450597  Biso 1.000000     H
    H   1.0     0.676141     0.555768     0.444198  Biso 1.000000     H
    H   1.0     0.140984     0.465366     0.400309  Biso 1.000000     H
    H   1.0     0.630898     0.481703     0.389930  Biso 1.000000     H
    H   1.0     0.193260     0.405338     0.451021  Biso 1.000000     H
    H   1.0     0.679377     0.416037     0.442752  Biso 1.000000     H
    H   1.0     0.267767     0.685066     0.142827  Biso 1.000000     H
    H   1.0     0.769696     0.698809     0.141494  Biso 1.000000     H
    H   1.0     0.194683     0.663427     0.167552  Biso 1.000000     H
    H   1.0     0.695649     0.680496     0.162792  Biso 1.000000     H
    H   1.0     0.237174     0.754566     0.213472  Biso 1.000000     H
    H   1.0     0.737988     0.768731     0.211193  Biso 1.000000     H
    H   1.0     0.234230     0.252884     0.190309  Biso 1.000000     H
    H   1.0     0.727919     0.267912     0.183104  Biso 1.000000     H
    H   1.0     0.306644     0.276798     0.162972  Biso 1.000000     H
    H   1.0     0.801498     0.287808     0.159612  Biso 1.000000     H
    H   1.0     0.291205     0.208987     0.241675  Biso 1.000000     H
    H   1.0     0.782100     0.219387     0.237209  Biso 1.000000     H
    H   1.0     0.433695     0.552309     0.305264  Biso 1.000000     H
    H   1.0     0.927910     0.553156     0.310602  Biso 1.000000     H
    H   1.0     0.401436     0.617967     0.376970  Biso 1.000000     H
    H   1.0     0.894398     0.619201     0.381274  Biso 1.000000     H
    H   1.0     0.415990     0.481756     0.381644  Biso 1.000000     H
    H   1.0     0.906408     0.482047     0.385420  Biso 1.000000     H
    H   1.0     0.437181     0.956033     0.051867  Biso 1.000000     H
    H   1.0     0.943734     0.964453     0.059790  Biso 1.000000     H
    H   1.0     0.389943     0.032751     0.104357  Biso 1.000000     H
    H   1.0     0.899272     0.046892     0.111948  Biso 1.000000     H
    H   1.0     0.442739     0.095822     0.051935  Biso 1.000000     H
    H   1.0     0.953216     0.103332     0.058124  Biso 1.000000     H
    H   1.0     0.017158     0.829868     0.367105  Biso 1.000000     H
    H   1.0     0.512392     0.819924     0.357811  Biso 1.000000     H
    H   1.0     0.439703     0.838994     0.335718  Biso 1.000000     H
    H   1.0     0.945032     0.854900     0.345051  Biso 1.000000     H
    H   1.0     0.483216     0.748812     0.288579  Biso 1.000000     H
    H   1.0     0.985719     0.759227     0.299165  Biso 1.000000     H
    H   1.0     0.478992     0.250700     0.309648  Biso 1.000000     H
    H   1.0     0.996846     0.261755     0.313344  Biso 1.000000     H
    H   1.0     0.068591     0.234904     0.336800  Biso 1.000000     H
    H   1.0     0.550965     0.229733     0.334469  Biso 1.000000     H
    H   1.0     0.054736     0.299718     0.257534  Biso 1.000000     H
    H   1.0     0.536880     0.295821     0.255837  Biso 1.000000     H
    H   1.0     0.188668     0.944511     0.193778  Biso 1.000000     H
    H   1.0     0.681202     0.955467     0.188375  Biso 1.000000     H
    H   1.0     0.155022     0.877489     0.125276  Biso 1.000000     H
    H   1.0     0.650179     0.889038     0.117974  Biso 1.000000     H
    H   1.0     0.173372     0.012379     0.116949  Biso 1.000000     H
    H   1.0     0.664825     0.025575     0.112673  Biso 1.000000     H
    C   1.0     0.345454     0.493427     0.656831  Biso 1.000000     C
    C   1.0     0.839846     0.493542     0.646803  Biso 1.000000     C
    C   1.0     0.286874     0.475624     0.691219  Biso 1.000000     C
    C   1.0     0.781546     0.478786     0.682603  Biso 1.000000     C
    C   1.0     0.221723     0.239331     0.818133  Biso 1.000000     C
    C   1.0     0.711776     0.238169     0.801509  Biso 1.000000     C
    C   1.0     0.219821     0.340557     0.776839  Biso 1.000000     C
    C   1.0     0.712382     0.343443     0.764679  Biso 1.000000     C
    C   1.0     0.188672     0.651786     0.832263  Biso 1.000000     C
    C   1.0     0.693202     0.650797     0.835099  Biso 1.000000     C
    C   1.0     0.201951     0.560757     0.784757  Biso 1.000000     C
    C   1.0     0.702024     0.563498     0.783265  Biso 1.000000     C
    C   1.0     0.121668     0.441688     0.615008  Biso 1.000000     C
    C   1.0     0.612263     0.471897     0.613223  Biso 1.000000     C
    C   1.0     0.167581     0.447513     0.668809  Biso 1.000000     C
    C   1.0     0.660065     0.467677     0.664690  Biso 1.000000     C
    C   1.0     0.101739     0.000000     0.871369  Biso 1.000000     C
    C   1.0     0.591758     0.000000     0.839045  Biso 1.000000     C
    C   1.0     0.047519     0.000000     0.831505  Biso 1.000000     C
    C   1.0     0.533661     0.000000     0.807732  Biso 1.000000     C
    C   1.0    -0.001553     0.252650     0.696301  Biso 1.000000     C
    C   1.0     0.472907     0.265340     0.683151  Biso 1.000000     C
    C   1.0    -0.008430     0.153230     0.739074  Biso 1.000000     C
    C   1.0     0.469248     0.164670     0.725113  Biso 1.000000     C
    C   1.0     0.432856     0.853601     0.673421  Biso 1.000000     C
    C   1.0     0.961029     0.843101     0.684256  Biso 1.000000     C
    C   1.0     0.447706     0.944759     0.719676  Biso 1.000000     C
    C   1.0     0.971617     0.935069     0.731771  Biso 1.000000     C
    C   1.0     0.368495     0.068788     0.892965  Biso 1.000000     C
    C   1.0     0.876078     0.060250     0.894030  Biso 1.000000     C
    C   1.0     0.414622     0.060712     0.836688  Biso 1.000000     C
    C   1.0     0.926818     0.051238     0.843800  Biso 1.000000     C
    C   1.0     0.184493     0.474010     0.419302  Biso 1.000000     C
    C   1.0     0.673643     0.486474     0.411567  Biso 1.000000     C
    C   1.0     0.227402     0.481411     0.359407  Biso 1.000000     C
    C   1.0     0.719050     0.492838     0.354305  Biso 1.000000     C
    C   1.0     0.237567     0.679582     0.186528  Biso 1.000000     C
    C   1.0     0.738082     0.694140     0.183797  Biso 1.000000     C
    C   1.0     0.255693     0.592431     0.234543  Biso 1.000000     C
    C   1.0     0.753270     0.605046     0.231889  Biso 1.000000     C
    C   1.0     0.277389     0.271473     0.207628  Biso 1.000000     C
    C   1.0     0.770676     0.283272     0.202819  Biso 1.000000     C
    C   1.0     0.276057     0.375037     0.246026  Biso 1.000000     C
    C   1.0     0.769856     0.386083     0.242145  Biso 1.000000     C
    C   1.0     0.402527     0.545002     0.347890  Biso 1.000000     C
    C   1.0     0.895211     0.546793     0.351605  Biso 1.000000     C
    C   1.0     0.343104     0.520868     0.321266  Biso 1.000000     C
    C   1.0     0.836497     0.526619     0.321820  Biso 1.000000     C
    C   1.0     0.433837     0.026310     0.083591  Biso 1.000000     C
    C   1.0     0.942720     0.035641     0.090802  Biso 1.000000     C
    C   1.0     0.475740     0.020274     0.141853  Biso 1.000000     C
    C   1.0     0.984962     0.027005     0.148594  Biso 1.000000     C
    C   1.0     0.482977     0.824061     0.315216  Biso 1.000000     C
    C   1.0     0.987746     0.835362     0.324577  Biso 1.000000     C
    C   1.0     0.501859     0.911382     0.266185  Biso 1.000000     C
    C   1.0     0.000000     0.919122     0.274092  Biso 1.000000     C
    C   1.0     0.039516     0.239750     0.293854  Biso 1.000000     C
    C   1.0     0.522546     0.233398     0.290836  Biso 1.000000     C
    C   1.0     0.035619     0.134627     0.257655  Biso 1.000000     C
    C   1.0     0.522196     0.129225     0.253125  Biso 1.000000     C
    C   1.0     0.157955     0.951733     0.152718  Biso 1.000000     C
    C   1.0     0.650747     0.962053     0.146997  Biso 1.000000     C
    C   1.0     0.099098     0.981206     0.181973  Biso 1.000000     C
    C   1.0     0.590847     0.984656     0.175925  Biso 1.000000     C
    O   1.0     0.172864     0.266767     0.516196  Biso 1.000000     O
    O   1.0     0.642922     0.282933     0.510685  Biso 1.000000     O
    O   1.0     0.127385     0.169346     0.414419  Biso 1.000000     O
    O   1.0     0.609867     0.164286     0.411836  Biso 1.000000     O
    O   1.0     0.240280     0.896615     0.649909  Biso 1.000000     O
    O   1.0     0.719750     0.884229     0.649957  Biso 1.000000     O
    O   1.0     0.281938     0.066005     0.706346  Biso 1.000000     O
    O   1.0     0.780119     0.053219     0.675071  Biso 1.000000     O
    O   1.0     0.422866     0.239154     0.991366  Biso 1.000000     O
    O   1.0     0.922192     0.243528     0.992276  Biso 1.000000     O
    O   1.0     0.367394     0.346659     0.083676  Biso 1.000000     O
    O   1.0     0.865334     0.355567     0.081288  Biso 1.000000     O
    O   1.0     0.490007     0.607103     0.855548  Biso 1.000000     O
    O   1.0     0.982238     0.604089     0.855676  Biso 1.000000     O
    O   1.0     0.029398     0.435656     0.803945  Biso 1.000000     O
    O   1.0     0.528720     0.439761     0.792460  Biso 1.000000     O
    O   1.0     0.258405     0.742124     0.480595  Biso 1.000000     O
    O   1.0     0.762703     0.765576     0.475356  Biso 1.000000     O
    O   1.0     0.332183     0.746639     0.577643  Biso 1.000000     O
    O   1.0     0.832119     0.754647     0.576599  Biso 1.000000     O
    O   1.0     0.297505     0.083276     0.372021  Biso 1.000000     O
    O   1.0     0.785078     0.106692     0.340655  Biso 1.000000     O
    O   1.0     0.227284     0.925095     0.352554  Biso 1.000000     O
    O   1.0     0.721258     0.937159     0.339023  Biso 1.000000     O
    O   1.0     0.017178     0.759066     0.034313  Biso 1.000000     O
    O   1.0     0.510395     0.750728     0.022298  Biso 1.000000     O
    O   1.0     0.089598     0.736477     0.933125  Biso 1.000000     O
    O   1.0     0.582423     0.760488     0.919193  Biso 1.000000     O
    O   1.0     0.039759     0.417820     0.138338  Biso 1.000000     O
    O   1.0     0.544916     0.418616     0.128177  Biso 1.000000     O
    O   1.0     0.474943     0.574840     0.152773  Biso 1.000000     O
    O   1.0     0.972532     0.580494     0.155698  Biso 1.000000     O
    F   1.0     0.174940     0.070704     0.506079  Biso 1.000000     F
    F   1.0     0.662655     0.088711     0.508609  Biso 1.000000     F
    F   1.0     0.085359     0.155407     0.532932  Biso 1.000000     F
    F   1.0     0.567235     0.146842     0.530191  Biso 1.000000     F
    F   1.0     0.209784    -0.045013     0.766999  Biso 1.000000     F
    F   1.0     0.722508    -0.035607     0.766438  Biso 1.000000     F
    F   1.0     0.180097     0.053088     0.669577  Biso 1.000000     F
    F   1.0     0.672696     0.052670     0.677949  Biso 1.000000     F
    F   1.0     0.427467     0.435780     0.994142  Biso 1.000000     F
    F   1.0     0.927446     0.440115     0.991509  Biso 1.000000     F
    F   1.0     0.340095     0.351218     0.961386  Biso 1.000000     F
    F   1.0     0.840153     0.355582     0.958608  Biso 1.000000     F
    F   1.0     0.464603     0.564652     0.735640  Biso 1.000000     F
    F   1.0     0.969872     0.551619     0.733269  Biso 1.000000     F
    F   1.0     0.425305     0.458641     0.827411  Biso 1.000000     F
    F   1.0     0.922687     0.453170     0.822174  Biso 1.000000     F
    F   1.0     0.317707     0.901882     0.500225  Biso 1.000000     F
    F   1.0     0.827575     0.915306     0.502801  Biso 1.000000     F
    F   1.0     0.364785     0.751144     0.455616  Biso 1.000000     F
    F   1.0     0.869581     0.760328     0.455990  Biso 1.000000     F
    F   1.0     0.277796     0.000000     0.255569  Biso 1.000000     F
    F   1.0     0.782604     0.990997     0.238875  Biso 1.000000     F
    F   1.0     0.332165     0.907083     0.330727  Biso 1.000000     F
    F   1.0     0.827334     0.925008     0.338770  Biso 1.000000     F
    F   1.0     0.065144     0.587486     0.013639  Biso 1.000000     F
    F   1.0     0.575097     0.600616    -0.005688  Biso 1.000000     F
    F   1.0     0.122310     0.729149     0.052834  Biso 1.000000     F
    F   1.0     0.617119     0.755604     0.038564  Biso 1.000000     F
    F   1.0     0.020219     0.497548     0.253150  Biso 1.000000     F
    F   1.0     0.532550     0.497464     0.244536  Biso 1.000000     F
    F   1.0     0.077385     0.595448     0.172198  Biso 1.000000     F
    F   1.0     0.580065     0.599967     0.158122  Biso 1.000000     F
    P   1.0     0.142413     0.174645     0.488269  Biso 1.000000     P
    P   1.0     0.622196     0.180160     0.485775  Biso 1.000000     P
    P   1.0     0.234470    -0.008435     0.693520  Biso 1.000000     P
    P   1.0     0.728762    -0.014997     0.685987  Biso 1.000000     P
    P   1.0     0.391041     0.334470     0.012316  Biso 1.000000     P
    P   1.0     0.890381     0.339939     0.010711  Biso 1.000000     P
    P   1.0     0.483390     0.517556     0.807661  Biso 1.000000     P
    P   1.0     0.981950     0.511780     0.809308  Biso 1.000000     P
    P   1.0     0.313750     0.778965     0.508617  Biso 1.000000     P
    P   1.0     0.818103     0.792873     0.507214  Biso 1.000000     P
    P   1.0     0.280875     0.987687     0.335284  Biso 1.000000     P
    P   1.0     0.775205     0.997043     0.319873  Biso 1.000000     P
    P   1.0     0.069563     0.710112     0.000000  Biso 1.000000     P
    P   1.0     0.566424     0.723001     0.989215  Biso 1.000000     P
    P   1.0     0.024632     0.516832     0.172578  Biso 1.000000     P
    P   1.0     0.529883     0.516346     0.164137  Biso 1.000000     P
    S   1.0     0.275020     0.587701     0.748695  Biso 1.000000     S
    S   1.0     0.774733     0.586261     0.744709  Biso 1.000000     S
    S   1.0     0.236153     0.468227     0.621764  Biso 1.000000     S
    S   1.0     0.727968     0.489643     0.615461  Biso 1.000000     S
    S   1.0     0.148155     0.560014     0.720739  Biso 1.000000     S
    S   1.0     0.645993     0.575868     0.722469  Biso 1.000000     S
    S   1.0     0.291963     0.356166     0.740296  Biso 1.000000     S
    S   1.0     0.783621     0.353817     0.725175  Biso 1.000000     S
    S   1.0     0.202373     0.443733     0.839112  Biso 1.000000     S
    S   1.0     0.700155     0.441082     0.832089  Biso 1.000000     S
    S   1.0     0.165284     0.322959     0.713491  Biso 1.000000     S
    S   1.0     0.655680     0.338785     0.703186  Biso 1.000000     S
    S   1.0     0.040466     0.907314     0.773544  Biso 1.000000     S
    S   1.0     0.520454     0.916413     0.751622  Biso 1.000000     S
    S   1.0     0.482639     0.000000     0.880030  Biso 1.000000     S
    S   1.0     0.989910     0.000000     0.896181  Biso 1.000000     S
    S   1.0     0.393805     0.947857     0.786822  Biso 1.000000     S
    S   1.0     0.911191     0.938000     0.791487  Biso 1.000000     S
    S   1.0     0.059246     0.138986     0.782942  Biso 1.000000     S
    S   1.0     0.540859     0.147850     0.757924  Biso 1.000000     S
    S   1.0    -0.020777     0.000000     0.677736  Biso 1.000000     S
    S   1.0     0.450665     0.000000     0.664543  Biso 1.000000     S
    S   1.0     0.414537     0.184642     0.791283  Biso 1.000000     S
    S   1.0     0.931240     0.175064     0.798131  Biso 1.000000     S
    S   1.0     0.224819     0.356633     0.316253  Biso 1.000000     S
    S   1.0     0.716071     0.369075     0.309944  Biso 1.000000     S
    S   1.0     0.296066     0.510987     0.396051  Biso 1.000000     S
    S   1.0     0.786873     0.517284     0.394543  Biso 1.000000     S
    S   1.0     0.349683     0.395999     0.275564  Biso 1.000000     S
    S   1.0     0.842662     0.402792     0.274915  Biso 1.000000     S
    S   1.0     0.201153     0.588917     0.304558  Biso 1.000000     S
    S   1.0     0.696786     0.603653     0.299655  Biso 1.000000     S
    S   1.0     0.255286     0.473699     0.184332  Biso 1.000000     S
    S   1.0     0.752325     0.487359     0.180679  Biso 1.000000     S
    S   1.0     0.326334     0.629474     0.264403  Biso 1.000000     S
    S   1.0     0.823363     0.637607     0.265385  Biso 1.000000     S
    S   1.0     0.472280     0.145283     0.184653  Biso 1.000000     S
    S   1.0     0.985557     0.153342     0.189712  Biso 1.000000     S
    S   1.0     0.053151    -0.008486     0.109279  Biso 1.000000     S
    S   1.0     0.545165    -0.007445     0.102764  Biso 1.000000     S
    S   1.0     0.108950     0.106854     0.225562  Biso 1.000000     S
    S   1.0     0.596469     0.110160     0.220959  Biso 1.000000     S
    S   1.0     0.448607     0.912467     0.198104  Biso 1.000000     S
    S   1.0     0.955190     0.923333     0.206527  Biso 1.000000     S
    S   1.0     0.500300     0.030536     0.315962  Biso 1.000000     S
    S   1.0     0.000000     0.039930     0.322170  Biso 1.000000     S
    S   1.0     0.078719     0.876065     0.241572  Biso 1.000000     S
    S   1.0     0.573129     0.876175     0.233849  Biso 1.000000     S
   Ag   1.0     0.266930     0.274533     0.582053  Biso 1.000000    Ag
   Ag   1.0     0.744925     0.324801     0.546753  Biso 1.000000    Ag
   Ag   1.0     0.099273     0.380864     0.890377  Biso 1.000000    Ag
   Ag   1.0     0.594996     0.379379     0.879681  Biso 1.000000    Ag
   Ag   1.0     0.265942     0.735095     0.673196  Biso 1.000000    Ag
   Ag   1.0     0.762603     0.732101     0.667025  Biso 1.000000    Ag
   Ag   1.0     0.018685     0.231020     0.923453  Biso 1.000000    Ag
   Ag   1.0     0.515427     0.230165     0.917688  Biso 1.000000    Ag
   Ag   1.0     0.348087     0.130270     0.617156  Biso 1.000000    Ag
   Ag   1.0     0.795524     0.143523     0.576532  Biso 1.000000    Ag
   Ag   1.0     0.513864     0.770608     0.829696  Biso 1.000000    Ag
   Ag   1.0     0.000000     0.758452     0.844363  Biso 1.000000    Ag
   Ag   1.0     0.231126     0.740296     0.371543  Biso 1.000000    Ag
   Ag   1.0     0.731968     0.750037     0.369474  Biso 1.000000    Ag
   Ag   1.0     0.393887     0.463623     0.164296  Biso 1.000000    Ag
   Ag   1.0     0.890085     0.469376     0.163778  Biso 1.000000    Ag
   Ag   1.0     0.313327     0.146723     0.486657  Biso 1.000000    Ag
   Ag   1.0     0.785827     0.198720     0.445919  Biso 1.000000    Ag
   Ag   1.0     0.480264     0.761088     0.131262  Biso 1.000000    Ag
   Ag   1.0     0.982322     0.766544     0.141950  Biso 1.000000    Ag
   Ag   1.0     0.146782     0.000000     0.338401  Biso 1.000000    Ag
   Ag   1.0     0.639524     0.000000     0.331526  Biso 1.000000    Ag
   Ag   1.0     0.061663     0.353011     0.021775  Biso 1.000000    Ag
   Ag   1.0     0.560792     0.356856     0.012182  Biso 1.000000    Ag
