#======================================================================

# CRYSTAL DATA

#----------------------------------------------------------------------

data_VESTA_phase_1


_pd_phase_name                         MOF
_cell_length_a                         15.70700
_cell_length_b                         19.51700
_cell_length_c                         25.42400
_cell_angle_alpha                      89.99700
_cell_angle_beta                       90.00900
_cell_angle_gamma                      90.03800
_symmetry_space_group_name_H-M         "P 1"
_symmetry_Int_Tables_number            1

loop_
_symmetry_equiv_pos_as_xyz
   "x, y, z"

loop_
   _atom_site_label
   _atom_site_occupancy
   _atom_site_fract_x
   _atom_site_fract_y
   _atom_site_fract_z
   _atom_site_adp_type
   _atom_site_B_iso_or_equiv
   _atom_site_type_symbol
    H   1.0     0.899265     0.949508     0.330151  Biso 1.000000     H
    H   1.0     0.972136     0.016901     0.341143  Biso 1.000000     H
    H   1.0     0.967341     0.976790     0.277708  Biso 1.000000     H
    H   1.0     0.228456     0.809469     0.414825  Biso 1.000000     H
    H   1.0     0.200139     0.886546     0.449258  Biso 1.000000     H
    H   1.0     0.138020     0.812560     0.457862  Biso 1.000000     H
    H   1.0     0.957280     0.860488     0.650474  Biso 1.000000     H
    H   1.0     0.015005    -0.019159     0.098892  Biso 1.000000     H
    H   1.0     0.052354     0.046006     0.017442  Biso 1.000000     H
    H   1.0     0.202503     0.046441     0.985363  Biso 1.000000     H
    H   1.0     0.276693     0.920579     0.116053  Biso 1.000000     H
    H   1.0     0.281235     0.890212     0.253634  Biso 1.000000     H
    H   1.0     0.376455     0.912448     0.288877  Biso 1.000000     H
    H   1.0     0.282993     0.887810     0.323402  Biso 1.000000     H
    H   1.0     0.600649     0.050508     0.830202  Biso 1.000000     H
    H   1.0     0.527815     0.983108     0.841242  Biso 1.000000     H
    H   1.0     0.532546     0.023159     0.777781  Biso 1.000000     H
    H   1.0     0.271386     0.190447     0.914820  Biso 1.000000     H
    H   1.0     0.299865     0.113440     0.949309  Biso 1.000000     H
    H   1.0     0.361863     0.187503     0.957845  Biso 1.000000     H
    H   1.0     0.542569     0.139464     0.150478  Biso 1.000000     H
    H   1.0     0.484994     0.000000     0.598948  Biso 1.000000     H
    H   1.0     0.447683     0.954130     0.517511  Biso 1.000000     H
    H   1.0     0.297515     0.953622     0.485409  Biso 1.000000     H
    H   1.0     0.223284     0.079545     0.616031  Biso 1.000000     H
    H   1.0     0.218613     0.109781     0.753706  Biso 1.000000     H
    H   1.0     0.123464     0.087606     0.789032  Biso 1.000000     H
    H   1.0     0.217023     0.112248     0.823472  Biso 1.000000     H
    H   1.0     0.101166     0.449821     0.669846  Biso 1.000000     H
    H   1.0     0.028193     0.517199     0.659353  Biso 1.000000     H
    H   1.0     0.033747     0.476852     0.722681  Biso 1.000000     H
    H   1.0     0.772168     0.309092     0.585758  Biso 1.000000     H
    H   1.0     0.799273     0.386766     0.551718  Biso 1.000000     H
    H   1.0     0.862189     0.313469     0.542422  Biso 1.000000     H
    H   1.0     0.042957     0.360862     0.349887  Biso 1.000000     H
    H   1.0     0.985199     0.482310     0.901665  Biso 1.000000     H
    H   1.0     0.947530     0.547598     0.982982  Biso 1.000000     H
    H   1.0     0.797331     0.547743     0.014938  Biso 1.000000     H
    H   1.0     0.723773     0.420991     0.884590  Biso 1.000000     H
    H   1.0     0.719160     0.390324     0.745598  Biso 1.000000     H
    H   1.0     0.623508     0.412434     0.710848  Biso 1.000000     H
    H   1.0     0.716481     0.387927     0.675816  Biso 1.000000     H
    H   1.0     0.398789     0.550296     0.169962  Biso 1.000000     H
    H   1.0     0.471644     0.482884     0.159277  Biso 1.000000     H
    H   1.0     0.466378     0.523082     0.222668  Biso 1.000000     H
    H   1.0     0.727672     0.691038     0.085726  Biso 1.000000     H
    H   1.0     0.700580     0.613374     0.051668  Biso 1.000000     H
    H   1.0     0.637594     0.686648     0.042421  Biso 1.000000     H
    H   1.0     0.457208     0.639255     0.849820  Biso 1.000000     H
    H   1.0     0.514786     0.517632     0.401608  Biso 1.000000     H
    H   1.0     0.552505     0.452294     0.482906  Biso 1.000000     H
    H   1.0     0.702725     0.452175     0.514879  Biso 1.000000     H
    H   1.0     0.776170     0.579077     0.384598  Biso 1.000000     H
    H   1.0     0.780771     0.609777     0.245706  Biso 1.000000     H
    H   1.0     0.876385     0.587548     0.210988  Biso 1.000000     H
    H   1.0     0.783412     0.612026     0.175922  Biso 1.000000     H
    H   1.0     0.100624     0.050480     0.669709  Biso 1.000000     H
    H   1.0     0.027713     0.983109     0.658753  Biso 1.000000     H
    H   1.0     0.032577     0.023233     0.722181  Biso 1.000000     H
    H   1.0     0.771426     0.190519     0.585038  Biso 1.000000     H
    H   1.0     0.799858     0.113469     0.550604  Biso 1.000000     H
    H   1.0     0.861903     0.187497     0.542033  Biso 1.000000     H
    H   1.0     0.042705     0.139538     0.349498  Biso 1.000000     H
    H   1.0     0.984958     0.000000     0.900991  Biso 1.000000     H
    H   1.0     0.947624     0.954047     0.982430  Biso 1.000000     H
    H   1.0     0.797487     0.953641     0.014536  Biso 1.000000     H
    H   1.0     0.723296     0.079608     0.883904  Biso 1.000000     H
    H   1.0     0.718723     0.109763     0.746179  Biso 1.000000     H
    H   1.0     0.623484     0.087577     0.710936  Biso 1.000000     H
    H   1.0     0.716935     0.112247     0.676413  Biso 1.000000     H
    H   1.0     0.399378     0.949550     0.169717  Biso 1.000000     H
    H   1.0     0.472241     0.016936     0.158708  Biso 1.000000     H
    H   1.0     0.467455     0.976870     0.222161  Biso 1.000000     H
    H   1.0     0.728674     0.809626     0.085122  Biso 1.000000     H
    H   1.0     0.700165     0.886640     0.050652  Biso 1.000000     H
    H   1.0     0.638203     0.812564     0.042092  Biso 1.000000     H
    H   1.0     0.457469     0.860580     0.849519  Biso 1.000000     H
    H   1.0     0.515010    -0.019355     0.400988  Biso 1.000000     H
    H   1.0     0.552318     0.045850     0.482435  Biso 1.000000     H
    H   1.0     0.702482     0.046318     0.514551  Biso 1.000000     H
    H   1.0     0.776709     0.920423     0.383914  Biso 1.000000     H
    H   1.0     0.781442     0.890302     0.246076  Biso 1.000000     H
    H   1.0     0.876584     0.912411     0.210717  Biso 1.000000     H
    H   1.0     0.783005     0.887735     0.176312  Biso 1.000000     H
    H   1.0     0.898806     0.550234     0.330150  Biso 1.000000     H
    H   1.0     0.971771     0.482851     0.340651  Biso 1.000000     H
    H   1.0     0.966224     0.523189     0.277320  Biso 1.000000     H
    H   1.0     0.227864     0.690929     0.414202  Biso 1.000000     H
    H   1.0     0.200774     0.613249     0.448238  Biso 1.000000     H
    H   1.0     0.137874     0.686551     0.457561  Biso 1.000000     H
    H   1.0     0.957062     0.639164     0.650107  Biso 1.000000     H
    H   1.0     0.014803     0.517724     0.098324  Biso 1.000000     H
    H   1.0     0.052474     0.452454     0.016998  Biso 1.000000     H
    H   1.0     0.202678     0.452315     0.985045  Biso 1.000000     H
    H   1.0     0.276232     0.579029     0.115415  Biso 1.000000     H
    H   1.0     0.280836     0.609667     0.254386  Biso 1.000000     H
    H   1.0     0.376483     0.587590     0.289153  Biso 1.000000     H
    H   1.0     0.283500     0.612117     0.324167  Biso 1.000000     H
    H   1.0     0.601248     0.449659     0.830044  Biso 1.000000     H
    H   1.0     0.528423     0.517095     0.840722  Biso 1.000000     H
    H   1.0     0.533680     0.476891     0.777334  Biso 1.000000     H
    H   1.0     0.272290     0.309015     0.914267  Biso 1.000000     H
    H   1.0     0.299410     0.386677     0.948318  Biso 1.000000     H
    H   1.0     0.362366     0.313389     0.957576  Biso 1.000000     H
    H   1.0     0.542816     0.360789     0.150166  Biso 1.000000     H
    H   1.0     0.485208     0.482425     0.598405  Biso 1.000000     H
    H   1.0     0.447500     0.547754     0.517100  Biso 1.000000     H
    H   1.0     0.297289     0.547863     0.485115  Biso 1.000000     H
    H   1.0     0.223828     0.420960     0.615394  Biso 1.000000     H
    H   1.0     0.219203     0.390297     0.754312  Biso 1.000000     H
    H   1.0     0.123572     0.412469     0.789034  Biso 1.000000     H
    H   1.0     0.216538     0.387961     0.824095  Biso 1.000000     H
    H   1.0     0.153255     0.750441     0.207676  Biso 1.000000     H
    H   1.0     0.941443     0.749687     0.698863  Biso 1.000000     H
    H   1.0     0.006312     0.750219     0.507457  Biso 1.000000     H
    H   1.0     0.346743     0.249553     0.707697  Biso 1.000000     H
    H   1.0     0.558344     0.250238     0.198909  Biso 1.000000     H
    H   1.0     0.493778     0.249808     0.007450  Biso 1.000000     H
    H   1.0     0.846745     0.249452     0.792269  Biso 1.000000     H
    H   1.0     0.058566     0.250347     0.301120  Biso 1.000000     H
    H   1.0     0.993692     0.249785     0.492526  Biso 1.000000     H
    H   1.0     0.653237     0.750539     0.292272  Biso 1.000000     H
    H   1.0     0.441696     0.749811     0.801082  Biso 1.000000     H
    H   1.0     0.506223     0.750222     0.992546  Biso 1.000000     H
    C   1.0     0.963285     0.968245     0.320286  Biso 1.000000     C
    C   1.0     0.028921     0.918358     0.337452  Biso 1.000000     C
    C   1.0     0.120682     0.863071     0.384428  Biso 1.000000     C
    C   1.0     0.175548     0.841215     0.428781  Biso 1.000000     C
    C   1.0     0.992652     0.879786     0.547906  Biso 1.000000     C
    C   1.0     0.983831     0.812420     0.576241  Biso 1.000000     C
    C   1.0     0.965113     0.811762     0.630199  Biso 1.000000     C
    C   1.0     0.121698     0.906088     0.160423  Biso 1.000000     C
    C   1.0     0.143511     0.946712     0.112462  Biso 1.000000     C
    C   1.0     0.080308     0.982257     0.084538  Biso 1.000000     C
    C   1.0     0.101502     0.018407     0.039067  Biso 1.000000     C
    C   1.0     0.185453     0.019095     0.021159  Biso 1.000000     C
    C   1.0     0.249434     0.984513     0.048982  Biso 1.000000     C
    C   1.0     0.227782     0.948357     0.094570  Biso 1.000000     C
    C   1.0     0.340475     0.987013     0.030598  Biso 1.000000     C
    C   1.0     0.321185     0.878199     0.288030  Biso 1.000000     C
    C   1.0     0.349411     0.805725     0.285960  Biso 1.000000     C
    C   1.0     0.536629     0.031746     0.820352  Biso 1.000000     C
    C   1.0     0.470987     0.081633     0.837495  Biso 1.000000     C
    C   1.0     0.379224     0.136919     0.884450  Biso 1.000000     C
    C   1.0     0.324359     0.158773     0.928791  Biso 1.000000     C
    C   1.0     0.507350     0.120232     0.047887  Biso 1.000000     C
    C   1.0     0.516146     0.187580     0.076239  Biso 1.000000     C
    C   1.0     0.534780     0.188204     0.130211  Biso 1.000000     C
    C   1.0     0.378283     0.094027     0.660448  Biso 1.000000     C
    C   1.0     0.356475     0.053437     0.612473  Biso 1.000000     C
    C   1.0     0.419698     0.017908     0.584572  Biso 1.000000     C
    C   1.0     0.398520     0.981723     0.539115  Biso 1.000000     C
    C   1.0     0.314569     0.981004     0.521191  Biso 1.000000     C
    C   1.0     0.250570     0.015582     0.548986  Biso 1.000000     C
    C   1.0     0.272207     0.051772     0.594563  Biso 1.000000     C
    C   1.0     0.159524     0.013030     0.530594  Biso 1.000000     C
    C   1.0     0.178749     0.121837     0.788122  Biso 1.000000     C
    C   1.0     0.150548     0.194316     0.786024  Biso 1.000000     C
    C   1.0     0.037276     0.468456     0.680073  Biso 1.000000     C
    C   1.0     0.971441     0.418572     0.663084  Biso 1.000000     C
    C   1.0     0.879591     0.363314     0.616132  Biso 1.000000     C
    C   1.0     0.824585     0.341439     0.571832  Biso 1.000000     C
    C   1.0     0.007425     0.379640     0.452427  Biso 1.000000     C
    C   1.0     0.016236     0.312384     0.423943  Biso 1.000000     C
    C   1.0     0.035007     0.312016     0.369989  Biso 1.000000     C
    C   1.0     0.878547     0.406709     0.840401  Biso 1.000000     C
    C   1.0     0.856812     0.447648     0.888168  Biso 1.000000     C
    C   1.0     0.919874     0.483535     0.915989  Biso 1.000000     C
    C   1.0     0.898491     0.519800     0.961374  Biso 1.000000     C
    C   1.0     0.814503     0.520303     0.979224  Biso 1.000000     C
    C   1.0     0.750670     0.485391     0.951445  Biso 1.000000     C
    C   1.0     0.772524     0.449076     0.906010  Biso 1.000000     C
    C   1.0     0.659573     0.487613     0.969695  Biso 1.000000     C
    C   1.0     0.678798     0.378257     0.711391  Biso 1.000000     C
    C   1.0     0.650575     0.305767     0.713677  Biso 1.000000     C
    C   1.0     0.462697     0.531582     0.180075  Biso 1.000000     C
    C   1.0     0.528525     0.581465     0.163074  Biso 1.000000     C
    C   1.0     0.620324     0.636753     0.116118  Biso 1.000000     C
    C   1.0     0.675261     0.658674     0.071807  Biso 1.000000     C
    C   1.0     0.492559     0.620391     0.952388  Biso 1.000000     C
    C   1.0     0.483792     0.687670     0.923919  Biso 1.000000     C
    C   1.0     0.465120     0.688084     0.869948  Biso 1.000000     C
    C   1.0     0.621410     0.593312     0.340387  Biso 1.000000     C
    C   1.0     0.643153     0.552357     0.388146  Biso 1.000000     C
    C   1.0     0.580112     0.516425     0.415943  Biso 1.000000     C
    C   1.0     0.601525     0.480128     0.461314  Biso 1.000000     C
    C   1.0     0.685515     0.479649     0.479176  Biso 1.000000     C
    C   1.0     0.749322     0.514611     0.451422  Biso 1.000000     C
    C   1.0     0.727441     0.550954     0.406000  Biso 1.000000     C
    C   1.0     0.840420     0.512415     0.469681  Biso 1.000000     C
    C   1.0     0.821123     0.621755     0.211482  Biso 1.000000     C
    C   1.0     0.849397     0.694238     0.213676  Biso 1.000000     C
    C   1.0     0.036605     0.031767     0.679602  Biso 1.000000     C
    C   1.0     0.970982     0.081669     0.662446  Biso 1.000000     C
    C   1.0     0.879235     0.136971     0.615465  Biso 1.000000     C
    C   1.0     0.824381     0.158811     0.571100  Biso 1.000000     C
    C   1.0     0.007334     0.120220     0.452056  Biso 1.000000     C
    C   1.0     0.016164     0.187595     0.423734  Biso 1.000000     C
    C   1.0     0.034882     0.188262     0.369776  Biso 1.000000     C
    C   1.0     0.878287     0.094039     0.839511  Biso 1.000000     C
    C   1.0     0.856465     0.053427     0.887470  Biso 1.000000     C
    C   1.0     0.919667     0.017848     0.915367  Biso 1.000000     C
    C   1.0     0.898478     0.981676     0.960826  Biso 1.000000     C
    C   1.0     0.814537     0.981009     0.978750  Biso 1.000000     C
    C   1.0     0.750555     0.015625     0.950954  Biso 1.000000     C
    C   1.0     0.772201     0.051805     0.905375  Biso 1.000000     C
    C   1.0     0.659517     0.013110     0.969349  Biso 1.000000     C
    C   1.0     0.678760     0.121821     0.711798  Biso 1.000000     C
    C   1.0     0.650547     0.194295     0.713922  Biso 1.000000     C
    C   1.0     0.463396     0.968295     0.179588  Biso 1.000000     C
    C   1.0     0.529033     0.918400     0.162452  Biso 1.000000     C
    C   1.0     0.620803     0.863117     0.115499  Biso 1.000000     C
    C   1.0     0.675688     0.841291     0.071157  Biso 1.000000     C
    C   1.0     0.492667     0.879808     0.952109  Biso 1.000000     C
    C   1.0     0.483874     0.812458     0.923758  Biso 1.000000     C
    C   1.0     0.465253     0.811838     0.869784  Biso 1.000000     C
    C   1.0     0.621706     0.905953     0.339506  Biso 1.000000     C
    C   1.0     0.643523     0.946544     0.387475  Biso 1.000000     C
    C   1.0     0.580303     0.982081     0.415371  Biso 1.000000     C
    C   1.0     0.601478     0.018248     0.460835  Biso 1.000000     C
    C   1.0     0.685426     0.018955     0.478762  Biso 1.000000     C
    C   1.0     0.749424     0.984378     0.450966  Biso 1.000000     C
    C   1.0     0.727791     0.948198     0.405384  Biso 1.000000     C
    C   1.0     0.840467     0.986935     0.469361  Biso 1.000000     C
    C   1.0     0.821290     0.878190     0.211664  Biso 1.000000     C
    C   1.0     0.849472     0.805709     0.213822  Biso 1.000000     C
    C   1.0     0.962694     0.531592     0.319926  Biso 1.000000     C
    C   1.0     0.028536     0.581474     0.336911  Biso 1.000000     C
    C   1.0     0.120413     0.636720     0.383849  Biso 1.000000     C
    C   1.0     0.175451     0.658583     0.428138  Biso 1.000000     C
    C   1.0     0.992579     0.620379     0.547562  Biso 1.000000     C
    C   1.0     0.983772     0.687634     0.576046  Biso 1.000000     C
    C   1.0     0.965005     0.688007     0.630001  Biso 1.000000     C
    C   1.0     0.121449     0.593304     0.159599  Biso 1.000000     C
    C   1.0     0.143192     0.552373     0.111831  Biso 1.000000     C
    C   1.0     0.080130     0.516494     0.084003  Biso 1.000000     C
    C   1.0     0.101512     0.480250     0.038609  Biso 1.000000     C
    C   1.0     0.185503     0.479741     0.020766  Biso 1.000000     C
    C   1.0     0.249334     0.514644     0.048552  Biso 1.000000     C
    C   1.0     0.227481     0.550947     0.093993  Biso 1.000000     C
    C   1.0     0.340430     0.512424     0.030304  Biso 1.000000     C
    C   1.0     0.321189     0.621763     0.288591  Biso 1.000000     C
    C   1.0     0.349403     0.694254     0.286273  Biso 1.000000     C
    C   1.0     0.537350     0.468393     0.819927  Biso 1.000000     C
    C   1.0     0.471496     0.418531     0.836925  Biso 1.000000     C
    C   1.0     0.379664     0.363269     0.883875  Biso 1.000000     C
    C   1.0     0.324713     0.341368     0.928185  Biso 1.000000     C
    C   1.0     0.507439     0.379639     0.047598  Biso 1.000000     C
    C   1.0     0.516219     0.312366     0.076071  Biso 1.000000     C
    C   1.0     0.534904     0.311958     0.130040  Biso 1.000000     C
    C   1.0     0.378582     0.406735     0.659615  Biso 1.000000     C
    C   1.0     0.356842     0.447692     0.611856  Biso 1.000000     C
    C   1.0     0.419885     0.483627     0.584064  Biso 1.000000     C
    C   1.0     0.398478     0.519918     0.538689  Biso 1.000000     C
    C   1.0     0.314491     0.520392     0.520821  Biso 1.000000     C
    C   1.0     0.250681     0.485428     0.548572  Biso 1.000000     C
    C   1.0     0.272558     0.449088     0.593995  Biso 1.000000     C
    C   1.0     0.159583     0.487618     0.530310  Biso 1.000000     C
    C   1.0     0.178842     0.378271     0.788522  Biso 1.000000     C
    C   1.0     0.150588     0.305787     0.786268  Biso 1.000000     C
    C   1.0     0.956062     0.749809     0.656929  Biso 1.000000     C
    C   1.0     0.993145     0.750097     0.549472  Biso 1.000000     C
    C   1.0     0.543794     0.250141     0.156962  Biso 1.000000     C
    C   1.0     0.506882     0.249916     0.049475  Biso 1.000000     C
    C   1.0     0.043944     0.250219     0.343054  Biso 1.000000     C
    C   1.0     0.006858     0.249915     0.450510  Biso 1.000000     C
    C   1.0     0.456236     0.749904     0.843030  Biso 1.000000     C
    C   1.0     0.493129     0.750119     0.950519  Biso 1.000000     C
    N   1.0     0.061862     0.869552     0.306605  Biso 1.000000     N
    N   1.0     0.120688     0.834174     0.336667  Biso 1.000000     N
    N   1.0     0.064285     0.915633     0.386180  Biso 1.000000     N
    N   1.0     0.428534     0.785434     0.275352  Biso 1.000000     N
    N   1.0     0.438061     0.130450     0.806644  Biso 1.000000     N
    N   1.0     0.379237     0.165828     0.836691  Biso 1.000000     N
    N   1.0     0.435613     0.084352     0.886212  Biso 1.000000     N
    N   1.0     0.071422     0.214611     0.775414  Biso 1.000000     N
    N   1.0     0.938323     0.369881     0.694039  Biso 1.000000     N
    N   1.0     0.879436     0.334532     0.663928  Biso 1.000000     N
    N   1.0     0.936165     0.415797     0.614309  Biso 1.000000     N
    N   1.0     0.571426     0.285516     0.724357  Biso 1.000000     N
    N   1.0     0.561638     0.630165     0.194025  Biso 1.000000     N
    N   1.0     0.620495     0.665530     0.163913  Biso 1.000000     N
    N   1.0     0.563779     0.584250     0.114300  Biso 1.000000     N
    N   1.0     0.928574     0.714483     0.224303  Biso 1.000000     N
    N   1.0     0.938057     0.130482     0.693290  Biso 1.000000     N
    N   1.0     0.879241     0.165872     0.663226  Biso 1.000000     N
    N   1.0     0.935619     0.084398     0.613721  Biso 1.000000     N
    N   1.0     0.571431     0.214585     0.724549  Biso 1.000000     N
    N   1.0     0.561942     0.869574     0.193300  Biso 1.000000     N
    N   1.0     0.620770     0.834195     0.163254  Biso 1.000000     N
    N   1.0     0.564420     0.915688     0.113740  Biso 1.000000     N
    N   1.0     0.928597     0.785414     0.224433  Biso 1.000000     N
    N   1.0     0.061639     0.630168     0.305954  Biso 1.000000     N
    N   1.0     0.120546     0.665511     0.336055  Biso 1.000000     N
    N   1.0     0.063836     0.584240     0.385680  Biso 1.000000     N
    N   1.0     0.428551     0.714503     0.275587  Biso 1.000000     N
    N   1.0     0.438373     0.369836     0.805974  Biso 1.000000     N
    N   1.0     0.379494     0.334487     0.836081  Biso 1.000000     N
    N   1.0     0.436228     0.415760     0.885695  Biso 1.000000     N
    N   1.0     0.071422     0.285543     0.775608  Biso 1.000000     N
    N   1.0     0.297924     0.749994     0.293296  Biso 1.000000     N
    N   1.0     0.202057     0.250044     0.793316  Biso 1.000000     N
    N   1.0     0.702043     0.250028     0.706618  Biso 1.000000     N
    N   1.0     0.797942     0.749981     0.206590  Biso 1.000000     N
    O   1.0     0.014871     0.878183     0.499784  Biso 1.000000     O
    O   1.0     0.977041     0.933832     0.574491  Biso 1.000000     O
    O   1.0     0.396085     0.960185     0.060476  Biso 1.000000     O
    O   1.0     0.354953     0.016471     0.986731  Biso 1.000000     O
    O   1.0     0.177981     0.875273     0.186445  Biso 1.000000     O
    O   1.0     0.041153     0.903145     0.173314  Biso 1.000000     O
    O   1.0     0.485104     0.121856     0.999765  Biso 1.000000     O
    O   1.0     0.522962     0.066176     0.074466  Biso 1.000000     O
    O   1.0     0.103909     0.039836     0.560466  Biso 1.000000     O
    O   1.0     0.145036     0.983567     0.486728  Biso 1.000000     O
    O   1.0     0.322001     0.124812     0.686477  Biso 1.000000     O
    O   1.0     0.458835     0.096964     0.673342  Biso 1.000000     O
    O   1.0     0.985108     0.377908     0.500532  Biso 1.000000     O
    O   1.0     0.022946     0.433757     0.425915  Biso 1.000000     O
    O   1.0     0.604095     0.460736     0.939717  Biso 1.000000     O
    O   1.0     0.644966     0.516899     0.013597  Biso 1.000000     O
    O   1.0     0.822292     0.374817     0.815112  Biso 1.000000     O
    O   1.0     0.958901     0.404592     0.826932  Biso 1.000000     O
    O   1.0     0.514872     0.622092     0.000500  Biso 1.000000     O
    O   1.0     0.477018     0.566290     0.925860  Biso 1.000000     O
    O   1.0     0.895883     0.539307     0.439708  Biso 1.000000     O
    O   1.0     0.855050     0.483123     0.513586  Biso 1.000000     O
    O   1.0     0.677662     0.625222     0.315115  Biso 1.000000     O
    O   1.0     0.541055     0.595433     0.326909  Biso 1.000000     O
    O   1.0     0.985134     0.121815     0.500182  Biso 1.000000     O
    O   1.0     0.022919     0.066180     0.425456  Biso 1.000000     O
    O   1.0     0.603906     0.039974     0.939490  Biso 1.000000     O
    O   1.0     0.645045     0.983608     0.013201  Biso 1.000000     O
    O   1.0     0.822005     0.124843     0.813481  Biso 1.000000     O
    O   1.0     0.958835     0.096962     0.826624  Biso 1.000000     O
    O   1.0     0.514880     0.878184     0.000238  Biso 1.000000     O
    O   1.0     0.477085     0.933865     0.925525  Biso 1.000000     O
    O   1.0     0.896083     0.960115     0.439497  Biso 1.000000     O
    O   1.0     0.854949     0.016418     0.513221  Biso 1.000000     O
    O   1.0     0.677985     0.875172     0.313474  Biso 1.000000     O
    O   1.0     0.541150     0.903025     0.326620  Biso 1.000000     O
    O   1.0     0.014890     0.622113     0.499456  Biso 1.000000     O
    O   1.0     0.977056     0.566263     0.574073  Biso 1.000000     O
    O   1.0     0.395905     0.539296     0.060286  Biso 1.000000     O
    O   1.0     0.355038     0.483138     0.986402  Biso 1.000000     O
    O   1.0     0.177695     0.625219     0.184880  Biso 1.000000     O
    O   1.0     0.041100     0.595385     0.173081  Biso 1.000000     O
    O   1.0     0.485117     0.377932     0.999487  Biso 1.000000     O
    O   1.0     0.522980     0.433743     0.074121  Biso 1.000000     O
    O   1.0     0.104120     0.460723     0.560282  Biso 1.000000     O
    O   1.0     0.144952     0.516907     0.486404  Biso 1.000000     O
    O   1.0     0.322332     0.374804     0.684875  Biso 1.000000     O
    O   1.0     0.458931     0.404638     0.673107  Biso 1.000000     O
    O   1.0     0.111293     0.749957     0.236064  Biso 1.000000     O
    O   1.0     0.388698     0.250069     0.736098  Biso 1.000000     O
    O   1.0     0.888695     0.250059     0.763875  Biso 1.000000     O
    O   1.0     0.611290     0.749961     0.263868  Biso 1.000000     O
   Zn   1.0     0.040552     0.838780     0.232711  Biso 1.000000    Zn
   Zn   1.0     0.026022     0.966348     0.453259  Biso 1.000000    Zn
   Zn   1.0     0.459448     0.161248     0.732783  Biso 1.000000    Zn
   Zn   1.0     0.473964     0.033685     0.953276  Biso 1.000000    Zn
   Zn   1.0     0.959267     0.338948     0.768415  Biso 1.000000    Zn
   Zn   1.0     0.974076     0.466222     0.546849  Biso 1.000000    Zn
   Zn   1.0     0.540705     0.661088     0.268394  Biso 1.000000    Zn
   Zn   1.0     0.525929     0.533783     0.046849  Biso 1.000000    Zn
   Zn   1.0     0.959455     0.161246     0.767170  Biso 1.000000    Zn
   Zn   1.0     0.973959     0.033657     0.546705  Biso 1.000000    Zn
   Zn   1.0     0.540526     0.838775     0.267158  Biso 1.000000    Zn
   Zn   1.0     0.526041     0.966367     0.046704  Biso 1.000000    Zn
   Zn   1.0     0.040708     0.661073     0.231573  Biso 1.000000    Zn
   Zn   1.0     0.025922     0.533802     0.453144  Biso 1.000000    Zn
   Zn   1.0     0.459288     0.338939     0.731597  Biso 1.000000    Zn
   Zn   1.0     0.474065     0.466246     0.953146  Biso 1.000000    Zn
   Zn   1.0     0.173733     0.749964     0.306336  Biso 1.000000    Zn
   Zn   1.0     0.326253     0.250064     0.806348  Biso 1.000000    Zn
   Zn   1.0     0.826243     0.250068     0.693624  Biso 1.000000    Zn
   Zn   1.0     0.673733     0.749963     0.193627  Biso 1.000000    Zn
