#======================================================================

# CRYSTAL DATA

#----------------------------------------------------------------------

data_VESTA_phase_1


_pd_phase_name                         MOF
_cell_length_a                         15.84600
_cell_length_b                         12.61800
_cell_length_c                         12.60800
_cell_angle_alpha                      89.76900
_cell_angle_beta                       89.85000
_cell_angle_gamma                      90.37000
_symmetry_space_group_name_H-M         "P 1"
_symmetry_Int_Tables_number            1

loop_
_symmetry_equiv_pos_as_xyz
   "x, y, z"

loop_
   _atom_site_label
   _atom_site_occupancy
   _atom_site_fract_x
   _atom_site_fract_y
   _atom_site_fract_z
   _atom_site_adp_type
   _atom_site_B_iso_or_equiv
   _atom_site_type_symbol
    H   1.0     0.193127     0.273082     0.453021  Biso 1.000000     H
    H   1.0     0.693333     0.274151     0.453343  Biso 1.000000     H
    H   1.0     0.173022     0.403266     0.408753  Biso 1.000000     H
    H   1.0     0.673467     0.404204     0.408396  Biso 1.000000     H
    H   1.0     0.078593     0.273898     0.324174  Biso 1.000000     H
    H   1.0     0.579052     0.275549     0.323425  Biso 1.000000     H
    H   1.0     0.167672     0.203621     0.269977  Biso 1.000000     H
    H   1.0     0.667935     0.203403     0.271280  Biso 1.000000     H
    H   1.0     0.087764     0.234086     0.116684  Biso 1.000000     H
    H   1.0     0.588899     0.233775     0.116157  Biso 1.000000     H
    H   1.0     0.023020     0.345853     0.146524  Biso 1.000000     H
    H   1.0     0.524643     0.345694     0.147112  Biso 1.000000     H
    H   1.0     0.176675     0.339053     0.996221  Biso 1.000000     H
    H   1.0     0.677200     0.339184     0.995054  Biso 1.000000     H
    H   1.0     0.069129     0.340135     0.956575  Biso 1.000000     H
    H   1.0     0.569380     0.340042     0.956548  Biso 1.000000     H
    H   1.0     0.443074     0.725167     0.548479  Biso 1.000000     H
    H   1.0     0.942921     0.725337     0.548814  Biso 1.000000     H
    H   1.0     0.424346     0.595057     0.595350  Biso 1.000000     H
    H   1.0     0.924145     0.595233     0.595656  Biso 1.000000     H
    H   1.0     0.328410     0.723714     0.678167  Biso 1.000000     H
    H   1.0     0.828441     0.724006     0.678716  Biso 1.000000     H
    H   1.0     0.417078     0.797068     0.730400  Biso 1.000000     H
    H   1.0     0.917246     0.797165     0.730856  Biso 1.000000     H
    H   1.0     0.341017     0.768476     0.886210  Biso 1.000000     H
    H   1.0     0.841174     0.768546     0.886713  Biso 1.000000     H
    H   1.0     0.274205     0.657048     0.858791  Biso 1.000000     H
    H   1.0     0.774303     0.657174     0.859279  Biso 1.000000     H
    H   1.0     0.429070     0.664166     0.006294  Biso 1.000000     H
    H   1.0     0.929260     0.664108     0.006632  Biso 1.000000     H
    H   1.0     0.321759     0.663562     0.047710  Biso 1.000000     H
    H   1.0     0.821982     0.663465     0.048166  Biso 1.000000     H
    H   1.0     0.066556     0.551156     0.274861  Biso 1.000000     H
    H   1.0     0.566617     0.551558     0.274448  Biso 1.000000     H
    H   1.0     0.047413     0.596328     0.404887  Biso 1.000000     H
    H   1.0     0.547407     0.596445     0.404574  Biso 1.000000     H
    H   1.0     0.452940     0.681359     0.276014  Biso 1.000000     H
    H   1.0     0.952912     0.681017     0.276231  Biso 1.000000     H
    H   1.0     0.041966     0.733363     0.202903  Biso 1.000000     H
    H   1.0     0.542045     0.733829     0.202822  Biso 1.000000     H
    H   1.0     0.464394     0.888705     0.232406  Biso 1.000000     H
    H   1.0     0.964409     0.888387     0.232326  Biso 1.000000     H
    H   1.0     0.399075     0.858180     0.344635  Biso 1.000000     H
    H   1.0     0.899082     0.857916     0.344563  Biso 1.000000     H
    H   1.0     0.052505     0.009274     0.336534  Biso 1.000000     H
    H   1.0     0.552552     0.009506     0.336666  Biso 1.000000     H
    H   1.0     0.444885     0.048268     0.337680  Biso 1.000000     H
    H   1.0     0.944856     0.048005     0.337508  Biso 1.000000     H
    H   1.0     0.318343     0.451020     0.729162  Biso 1.000000     H
    H   1.0     0.818442     0.450934     0.729346  Biso 1.000000     H
    H   1.0     0.299415     0.407334     0.598499  Biso 1.000000     H
    H   1.0     0.799519     0.407353     0.598651  Biso 1.000000     H
    H   1.0     0.203655     0.321393     0.727323  Biso 1.000000     H
    H   1.0     0.703681     0.321392     0.727379  Biso 1.000000     H
    H   1.0     0.292338     0.267009     0.798208  Biso 1.000000     H
    H   1.0     0.792332     0.266908     0.798265  Biso 1.000000     H
    H   1.0     0.213752     0.113537     0.767717  Biso 1.000000     H
    H   1.0     0.713838     0.113457     0.767712  Biso 1.000000     H
    H   1.0     0.148140     0.142941     0.656233  Biso 1.000000     H
    H   1.0     0.648171     0.142884     0.656285  Biso 1.000000     H
    H   1.0     0.302266     0.995122     0.662680  Biso 1.000000     H
    H   1.0     0.802378     0.995194     0.662536  Biso 1.000000     H
    H   1.0     0.194810     0.953952     0.661489  Biso 1.000000     H
    H   1.0     0.694949     0.953913     0.661387  Biso 1.000000     H
    C   1.0     0.289436     0.339978     0.355591  Biso 1.000000     C
    C   1.0     0.789903     0.340539     0.355883  Biso 1.000000     C
    C   1.0     0.198662     0.326215     0.384115  Biso 1.000000     C
    C   1.0     0.699097     0.326999     0.384243  Biso 1.000000     C
    C   1.0     0.143984     0.281577     0.295137  Biso 1.000000     C
    C   1.0     0.644735     0.281985     0.295162  Biso 1.000000     C
    C   1.0     0.087062     0.321129     0.123688  Biso 1.000000     C
    C   1.0     0.588453     0.320807     0.123389  Biso 1.000000     C
    C   1.0     0.113566     0.368808     0.016968  Biso 1.000000     C
    C   1.0     0.614178     0.368732     0.016513  Biso 1.000000     C
    C   1.0     0.115348     0.486835     0.015405  Biso 1.000000     C
    C   1.0     0.615664     0.486763     0.015214  Biso 1.000000     C
    C   1.0     0.039652     0.663557     0.647347  Biso 1.000000     C
    C   1.0     0.539743     0.663575     0.647275  Biso 1.000000     C
    C   1.0     0.449018     0.673467     0.618311  Biso 1.000000     C
    C   1.0     0.948919     0.673597     0.618608  Biso 1.000000     C
    C   1.0     0.393870     0.718078     0.706711  Biso 1.000000     C
    C   1.0     0.893924     0.718233     0.707148  Biso 1.000000     C
    C   1.0     0.338826     0.681373     0.880152  Biso 1.000000     C
    C   1.0     0.838945     0.681449     0.880597  Biso 1.000000     C
    C   1.0     0.365488     0.634440     0.986764  Biso 1.000000     C
    C   1.0     0.865664     0.634413     0.987132  Biso 1.000000     C
    C   1.0     0.365839     0.516449     0.988749  Biso 1.000000     C
    C   1.0     0.866011     0.516423     0.988981  Biso 1.000000     C
    C   1.0     0.163687     0.648866     0.338561  Biso 1.000000     C
    C   1.0     0.663723     0.649120     0.338434  Biso 1.000000     C
    C   1.0     0.072797     0.620314     0.326919  Biso 1.000000     C
    C   1.0     0.572837     0.620587     0.326678  Biso 1.000000     C
    C   1.0     0.018618     0.709291     0.281917  Biso 1.000000     C
    C   1.0     0.518670     0.709636     0.281785  Biso 1.000000     C
    C   1.0     0.463200     0.881580     0.319565  Biso 1.000000     C
    C   1.0     0.963207     0.881313     0.319491  Biso 1.000000     C
    C   1.0     0.489270     0.988256     0.366632  Biso 1.000000     C
    C   1.0     0.989251     0.988026     0.366504  Biso 1.000000     C
    C   1.0     0.490277     0.989167     0.484748  Biso 1.000000     C
    C   1.0     0.990249     0.989009     0.484623  Biso 1.000000     C
    C   1.0     0.414953     0.354505     0.664512  Biso 1.000000     C
    C   1.0     0.915012     0.354408     0.664656  Biso 1.000000     C
    C   1.0     0.324199     0.382537     0.676229  Biso 1.000000     C
    C   1.0     0.824269     0.382478     0.676372  Biso 1.000000     C
    C   1.0     0.268967     0.292906     0.720037  Biso 1.000000     C
    C   1.0     0.768983     0.292864     0.720101  Biso 1.000000     C
    C   1.0     0.212426     0.121024     0.680607  Biso 1.000000     C
    C   1.0     0.712475     0.120994     0.680607  Biso 1.000000     C
    C   1.0     0.239040     0.015184     0.632903  Biso 1.000000     C
    C   1.0     0.739126     0.015213     0.632818  Biso 1.000000     C
    C   1.0     0.240531     0.014966     0.514811  Biso 1.000000     C
    C   1.0     0.740557     0.015097     0.514727  Biso 1.000000     C
    N   1.0     0.318323     0.404466     0.278395  Biso 1.000000     N
    N   1.0     0.818872     0.405165     0.278855  Biso 1.000000     N
    N   1.0     0.403795     0.397710     0.277136  Biso 1.000000     N
    N   1.0     0.904320     0.398198     0.277582  Biso 1.000000     N
    N   1.0     0.426660     0.331167     0.351818  Biso 1.000000     N
    N   1.0     0.927096     0.331464     0.352152  Biso 1.000000     N
    N   1.0     0.356013     0.293543     0.401982  Biso 1.000000     N
    N   1.0     0.856390     0.293877     0.402215  Biso 1.000000     N
    N   1.0     0.161266     0.547120     0.081633  Biso 1.000000     N
    N   1.0     0.661441     0.547075     0.081574  Biso 1.000000     N
    N   1.0     0.146392     0.650451     0.056428  Biso 1.000000     N
    N   1.0     0.646278     0.650400     0.056611  Biso 1.000000     N
    N   1.0     0.093128     0.652949     0.976844  Biso 1.000000     N
    N   1.0     0.593010     0.652860     0.977032  Biso 1.000000     N
    N   1.0     0.072805     0.551266     0.949845  Biso 1.000000     N
    N   1.0     0.572952     0.551161     0.949797  Biso 1.000000     N
    N   1.0     0.069047     0.600928     0.725211  Biso 1.000000     N
    N   1.0     0.569105     0.601033     0.725232  Biso 1.000000     N
    N   1.0     0.154339     0.611575     0.726882  Biso 1.000000     N
    N   1.0     0.654382     0.611880     0.727101  Biso 1.000000     N
    N   1.0     0.176566     0.678550     0.651805  Biso 1.000000     N
    N   1.0     0.676630     0.678870     0.652045  Biso 1.000000     N
    N   1.0     0.105677     0.712590     0.600945  Biso 1.000000     N
    N   1.0     0.605766     0.712746     0.601019  Biso 1.000000     N
    N   1.0     0.411645     0.456014     0.922895  Biso 1.000000     N
    N   1.0     0.911681     0.456004     0.922964  Biso 1.000000     N
    N   1.0     0.395208     0.352748     0.948011  Biso 1.000000     N
    N   1.0     0.895227     0.352736     0.948040  Biso 1.000000     N
    N   1.0     0.341154     0.350494     0.027163  Biso 1.000000     N
    N   1.0     0.841290     0.350456     0.027319  Biso 1.000000     N
    N   1.0     0.321833     0.452266     0.053979  Biso 1.000000     N
    N   1.0     0.822059     0.452226     0.054238  Biso 1.000000     N
    N   1.0     0.192821     0.726723     0.401202  Biso 1.000000     N
    N   1.0     0.692821     0.726909     0.401182  Biso 1.000000     N
    N   1.0     0.278287     0.728268     0.393056  Biso 1.000000     N
    N   1.0     0.778288     0.728466     0.393110  Biso 1.000000     N
    N   1.0     0.300889     0.653107     0.327473  Biso 1.000000     N
    N   1.0     0.800925     0.653346     0.327504  Biso 1.000000     N
    N   1.0     0.230055     0.602324     0.291875  Biso 1.000000     N
    N   1.0     0.730117     0.602591     0.291791  Biso 1.000000     N
    N   1.0     0.035641     0.922273     0.544682  Biso 1.000000     N
    N   1.0     0.535700     0.922411     0.544779  Biso 1.000000     N
    N   1.0     0.020448     0.946579     0.648181  Biso 1.000000     N
    N   1.0     0.520486     0.946663     0.648290  Biso 1.000000     N
    N   1.0     0.467538     0.026194     0.651112  Biso 1.000000     N
    N   1.0     0.967550     0.026131     0.650972  Biso 1.000000     N
    N   1.0     0.447746     0.054181     0.549468  Biso 1.000000     N
    N   1.0     0.947750     0.054086     0.549320  Biso 1.000000     N
    N   1.0     0.444057     0.277570     0.601064  Biso 1.000000     N
    N   1.0     0.944112     0.277394     0.601303  Biso 1.000000     N
    N   1.0     0.029499     0.276311     0.609990  Biso 1.000000     N
    N   1.0     0.529476     0.276508     0.609724  Biso 1.000000     N
    N   1.0     0.052052     0.350860     0.676562  Biso 1.000000     N
    N   1.0     0.552028     0.351033     0.676325  Biso 1.000000     N
    N   1.0     0.481243     0.400965     0.712152  Biso 1.000000     N
    N   1.0     0.981297     0.400834     0.712329  Biso 1.000000     N
    N   1.0     0.287159     0.081633     0.455003  Biso 1.000000     N
    N   1.0     0.787168     0.081793     0.454924  Biso 1.000000     N
    N   1.0     0.271916     0.057899     0.351423  Biso 1.000000     N
    N   1.0     0.771900     0.058078     0.351345  Biso 1.000000     N
    N   1.0     0.217720     0.978806     0.348357  Biso 1.000000     N
    N   1.0     0.717704     0.978982     0.348276  Biso 1.000000     N
    N   1.0     0.197144     0.950644     0.449920  Biso 1.000000     N
    N   1.0     0.697160     0.950786     0.449839  Biso 1.000000     N
    O   1.0     0.145824     0.352974     0.205160  Biso 1.000000     O
    O   1.0     0.647957     0.352122     0.204215  Biso 1.000000     O
    O   1.0     0.396356     0.648174     0.797789  Biso 1.000000     O
    O   1.0     0.896419     0.648261     0.798180  Biso 1.000000     O
    O   1.0     0.021906     0.800115     0.351564  Biso 1.000000     O
    O   1.0     0.521920     0.800337     0.351579  Biso 1.000000     O
    O   1.0     0.270621     0.203804     0.648265  Biso 1.000000     O
    O   1.0     0.770628     0.203818     0.648269  Biso 1.000000     O
   Cu   1.0     0.248142     0.490201     0.180278  Biso 1.000000    Cu
   Cu   1.0     0.748364     0.490324     0.180387  Biso 1.000000    Cu
   Cu   1.0     0.499251     0.513747     0.823865  Biso 1.000000    Cu
   Cu   1.0     0.999237     0.513740     0.823899  Biso 1.000000    Cu
   Cu   1.0     0.122414     0.824274     0.486685  Biso 1.000000    Cu
   Cu   1.0     0.622438     0.824395     0.486723  Biso 1.000000    Cu
   Cu   1.0     0.374066     0.180252     0.513620  Biso 1.000000    Cu
   Cu   1.0     0.874136     0.180277     0.513631  Biso 1.000000    Cu
