#======================================================================

# CRYSTAL DATA

#----------------------------------------------------------------------

data_VESTA_phase_1


_pd_phase_name                         MOF
_cell_length_a                         15.83900
_cell_length_b                         12.39700
_cell_length_c                         12.39700
_cell_angle_alpha                      90.00000
_cell_angle_beta                       90.00000
_cell_angle_gamma                      90.00000
_symmetry_space_group_name_H-M         "P 1"
_symmetry_Int_Tables_number            1

loop_
_symmetry_equiv_pos_as_xyz
   "x, y, z"

loop_
   _atom_site_label
   _atom_site_occupancy
   _atom_site_fract_x
   _atom_site_fract_y
   _atom_site_fract_z
   _atom_site_adp_type
   _atom_site_B_iso_or_equiv
   _atom_site_type_symbol
    H   1.0     0.470112     0.459971     0.279209  Biso 1.000000     H
    H   1.0     0.972915     0.459901     0.279204  Biso 1.000000     H
    H   1.0     0.490129     0.413917     0.411479  Biso 1.000000     H
    H   1.0     0.992913     0.413812     0.411459  Biso 1.000000     H
    H   1.0     0.083126     0.329626     0.280527  Biso 1.000000     H
    H   1.0     0.585994     0.329588     0.280536  Biso 1.000000     H
    H   1.0     0.497735     0.275518     0.205955  Biso 1.000000     H
    H   1.0     0.000000     0.275486     0.205900  Biso 1.000000     H
    H   1.0     0.073088     0.117564     0.235372  Biso 1.000000     H
    H   1.0     0.575931     0.117551     0.235479  Biso 1.000000     H
    H   1.0     0.138726     0.148366     0.348825  Biso 1.000000     H
    H   1.0     0.641561     0.148427     0.348920  Biso 1.000000     H
    H   1.0     0.093523     0.972456     0.342666  Biso 1.000000     H
    H   1.0     0.596395     0.972507     0.342842  Biso 1.000000     H
    H   1.0     0.488492     0.000000     0.342483  Biso 1.000000     H
    H   1.0     0.991350     0.000000     0.342353  Biso 1.000000     H
    H   1.0     0.221357     0.556961     0.733613  Biso 1.000000     H
    H   1.0     0.724298     0.556848     0.733454  Biso 1.000000     H
    H   1.0     0.239496     0.604248     0.601305  Biso 1.000000     H
    H   1.0     0.742413     0.604259     0.601171  Biso 1.000000     H
    H   1.0     0.336801     0.687934     0.731589  Biso 1.000000     H
    H   1.0     0.839689     0.687891     0.731569  Biso 1.000000     H
    H   1.0     0.249076     0.741095     0.807727  Biso 1.000000     H
    H   1.0     0.751920     0.740968     0.807690  Biso 1.000000     H
    H   1.0     0.325065     0.899747     0.779152  Biso 1.000000     H
    H   1.0     0.827889     0.899641     0.779258  Biso 1.000000     H
    H   1.0     0.390942     0.870517     0.665507  Biso 1.000000     H
    H   1.0     0.893809     0.870489     0.665634  Biso 1.000000     H
    H   1.0     0.345301     0.045903     0.672664  Biso 1.000000     H
    H   1.0     0.848172     0.045860     0.672842  Biso 1.000000     H
    H   1.0     0.237635     0.005488     0.673201  Biso 1.000000     H
    H   1.0     0.740500     0.005443     0.673332  Biso 1.000000     H
    H   1.0     0.345159     0.737720     0.459573  Biso 1.000000     H
    H   1.0     0.848136     0.737908     0.459614  Biso 1.000000     H
    H   1.0     0.364101     0.605203     0.413296  Biso 1.000000     H
    H   1.0     0.867040     0.605361     0.413414  Biso 1.000000     H
    H   1.0     0.460368     0.735430     0.328152  Biso 1.000000     H
    H   1.0     0.963263     0.735525     0.328091  Biso 1.000000     H
    H   1.0     0.372197     0.810598     0.274758  Biso 1.000000     H
    H   1.0     0.875063     0.810650     0.274717  Biso 1.000000     H
    H   1.0     0.448434     0.780231     0.115471  Biso 1.000000     H
    H   1.0     0.951235     0.780316     0.115524  Biso 1.000000     H
    H   1.0     0.011478     0.667174     0.146276  Biso 1.000000     H
    H   1.0     0.514371     0.667095     0.146339  Biso 1.000000     H
    H   1.0     0.472182     0.672531     0.966277  Biso 1.000000     H
    H   1.0     0.974974     0.672747     0.966245  Biso 1.000000     H
    H   1.0     0.364663     0.673219     0.000000  Biso 1.000000     H
    H   1.0     0.867460     0.673356     0.000000  Biso 1.000000     H
    H   1.0     0.095096     0.279616     0.554237  Biso 1.000000     H
    H   1.0     0.598030     0.279449     0.554314  Biso 1.000000     H
    H   1.0     0.114316     0.412192     0.599922  Biso 1.000000     H
    H   1.0     0.617333     0.412045     0.599875  Biso 1.000000     H
    H   1.0     0.211289     0.282076     0.684123  Biso 1.000000     H
    H   1.0     0.714137     0.281900     0.684303  Biso 1.000000     H
    H   1.0     0.123494     0.207087     0.738784  Biso 1.000000     H
    H   1.0     0.626257     0.207078     0.738970  Biso 1.000000     H
    H   1.0     0.201666     0.236546     0.895369  Biso 1.000000     H
    H   1.0     0.704604     0.236642     0.895460  Biso 1.000000     H
    H   1.0     0.266900     0.350596     0.865474  Biso 1.000000     H
    H   1.0     0.769783     0.350733     0.865511  Biso 1.000000     H
    H   1.0     0.217972     0.341565     0.045923  Biso 1.000000     H
    H   1.0     0.720835     0.341670     0.045994  Biso 1.000000     H
    H   1.0     0.109993     0.340904     0.006805  Biso 1.000000     H
    H   1.0     0.612874     0.341018     0.006834  Biso 1.000000     H
    C   1.0     0.374499     0.359084     0.344670  Biso 1.000000     C
    C   1.0     0.877309     0.358928     0.344588  Biso 1.000000     C
    C   1.0     0.465047     0.389362     0.332321  Biso 1.000000     C
    C   1.0     0.967855     0.389267     0.332285  Biso 1.000000     C
    C   1.0     0.017756     0.299819     0.286312  Biso 1.000000     C
    C   1.0     0.520607     0.299850     0.286350  Biso 1.000000     C
    C   1.0     0.074574     0.124691     0.323993  Biso 1.000000     C
    C   1.0     0.577417     0.124709     0.324098  Biso 1.000000     C
    C   1.0     0.049254     0.015965     0.372340  Biso 1.000000     C
    C   1.0     0.552105     0.016003     0.372493  Biso 1.000000     C
    C   1.0     0.048525     0.014513     0.492494  Biso 1.000000     C
    C   1.0     0.551360     0.014559     0.492654  Biso 1.000000     C
    C   1.0     0.124707     0.658237     0.671262  Biso 1.000000     C
    C   1.0     0.627629     0.658143     0.671200  Biso 1.000000     C
    C   1.0     0.215431     0.628001     0.681220  Biso 1.000000     C
    C   1.0     0.718355     0.627924     0.681115  Biso 1.000000     C
    C   1.0     0.271278     0.717353     0.726835  Biso 1.000000     C
    C   1.0     0.774159     0.717282     0.726798  Biso 1.000000     C
    C   1.0     0.326642     0.893377     0.690480  Biso 1.000000     C
    C   1.0     0.829499     0.893327     0.690582  Biso 1.000000     C
    C   1.0     0.300545     0.000000     0.642895  Biso 1.000000     C
    C   1.0     0.803418     0.000000     0.643041  Biso 1.000000     C
    C   1.0     0.299563     0.000000     0.522783  Biso 1.000000     C
    C   1.0     0.802445     0.000000     0.522935  Biso 1.000000     C
    C   1.0     0.248671     0.673365     0.359352  Biso 1.000000     C
    C   1.0     0.751597     0.673504     0.359478  Biso 1.000000     C
    C   1.0     0.339426     0.684654     0.389011  Biso 1.000000     C
    C   1.0     0.842360     0.684800     0.389090  Biso 1.000000     C
    C   1.0     0.394793     0.730029     0.299003  Biso 1.000000     C
    C   1.0     0.897675     0.730101     0.298998  Biso 1.000000     C
    C   1.0     0.450011     0.691663     0.123263  Biso 1.000000     C
    C   1.0     0.952833     0.691746     0.123257  Biso 1.000000     C
    C   1.0     0.423763     0.642373     0.015361  Biso 1.000000     C
    C   1.0     0.926576     0.642532     0.015324  Biso 1.000000     C
    C   1.0     0.423092     0.522231     0.015097  Biso 1.000000     C
    C   1.0     0.925924     0.522401     0.015018  Biso 1.000000     C
    C   1.0     0.502330     0.344106     0.655662  Biso 1.000000     C
    C   1.0     0.000000     0.344058     0.655739  Biso 1.000000     C
    C   1.0     0.089880     0.332794     0.624776  Biso 1.000000     C
    C   1.0     0.592811     0.332709     0.624788  Biso 1.000000     C
    C   1.0     0.145956     0.287570     0.714076  Biso 1.000000     C
    C   1.0     0.648793     0.287505     0.714198  Biso 1.000000     C
    C   1.0     0.202859     0.325224     0.889014  Biso 1.000000     C
    C   1.0     0.705761     0.325318     0.889087  Biso 1.000000     C
    C   1.0     0.177437     0.372504     0.998139  Biso 1.000000     C
    C   1.0     0.680322     0.372622     0.998189  Biso 1.000000     C
    C   1.0     0.176288     0.492610     0.000000  Biso 1.000000     C
    C   1.0     0.679189     0.492731     0.000000  Biso 1.000000     C
    N   1.0     0.346051     0.280008     0.409248  Biso 1.000000     N
    N   1.0     0.848833     0.279958     0.409305  Biso 1.000000     N
    N   1.0     0.260566     0.277766     0.401021  Biso 1.000000     N
    N   1.0     0.763396     0.277703     0.401016  Biso 1.000000     N
    N   1.0     0.237271     0.353720     0.333611  Biso 1.000000     N
    N   1.0     0.740115     0.353527     0.333389  Biso 1.000000     N
    N   1.0     0.307688     0.405680     0.296823  Biso 1.000000     N
    N   1.0     0.810500     0.405428     0.296599  Biso 1.000000     N
    N   1.0     0.505077     0.081360     0.554274  Biso 1.000000     N
    N   1.0     0.000000     0.081209     0.554125  Biso 1.000000     N
    N   1.0     0.018143     0.056188     0.659215  Biso 1.000000     N
    N   1.0     0.521037     0.056326     0.659300  Biso 1.000000     N
    N   1.0     0.072099     0.993772     0.661447  Biso 1.000000     N
    N   1.0     0.574924     0.993779     0.661546  Biso 1.000000     N
    N   1.0     0.091997     0.966291     0.557841  Biso 1.000000     N
    N   1.0     0.594798     0.966286     0.558000  Biso 1.000000     N
    N   1.0     0.095366     0.738039     0.608187  Biso 1.000000     N
    N   1.0     0.598279     0.738000     0.608229  Biso 1.000000     N
    N   1.0     0.010075     0.740298     0.618657  Biso 1.000000     N
    N   1.0     0.512945     0.740269     0.618733  Biso 1.000000     N
    N   1.0     0.490656     0.663650     0.685956  Biso 1.000000     N
    N   1.0     0.993505     0.663714     0.685981  Biso 1.000000     N
    N   1.0     0.058656     0.611269     0.720438  Biso 1.000000     N
    N   1.0     0.561586     0.611172     0.720360  Biso 1.000000     N
    N   1.0     0.253143     0.937186     0.461202  Biso 1.000000     N
    N   1.0     0.755978     0.937289     0.461327  Biso 1.000000     N
    N   1.0     0.268965     0.962418     0.356177  Biso 1.000000     N
    N   1.0     0.771800     0.962554     0.356248  Biso 1.000000     N
    N   1.0     0.323684     0.024930     0.353956  Biso 1.000000     N
    N   1.0     0.826578     0.024948     0.354062  Biso 1.000000     N
    N   1.0     0.343739     0.052188     0.457516  Biso 1.000000     N
    N   1.0     0.846674     0.052135     0.457688  Biso 1.000000     N
    N   1.0     0.219327     0.608212     0.281239  Biso 1.000000     N
    N   1.0     0.722296     0.608274     0.281419  Biso 1.000000     N
    N   1.0     0.133931     0.618107     0.279120  Biso 1.000000     N
    N   1.0     0.636897     0.618106     0.279275  Biso 1.000000     N
    N   1.0     0.111619     0.687054     0.354172  Biso 1.000000     N
    N   1.0     0.614533     0.687132     0.354222  Biso 1.000000     N
    N   1.0     0.182549     0.723204     0.405454  Biso 1.000000     N
    N   1.0     0.685443     0.723341     0.405522  Biso 1.000000     N
    N   1.0     0.376876     0.460956     0.082330  Biso 1.000000     N
    N   1.0     0.879739     0.461094     0.082223  Biso 1.000000     N
    N   1.0     0.393010     0.355806     0.057956  Biso 1.000000     N
    N   1.0     0.895927     0.355892     0.057880  Biso 1.000000     N
    N   1.0     0.451727     0.354270     0.990902  Biso 1.000000     N
    N   1.0     0.954612     0.354389     0.990847  Biso 1.000000     N
    N   1.0     0.471427     0.457669     0.962739  Biso 1.000000     N
    N   1.0     0.974295     0.457854     0.962701  Biso 1.000000     N
    N   1.0     0.473936     0.408494     0.734925  Biso 1.000000     N
    N   1.0     0.976688     0.408418     0.734997  Biso 1.000000     N
    N   1.0     0.388537     0.399304     0.738038  Biso 1.000000     N
    N   1.0     0.891296     0.399088     0.738104  Biso 1.000000     N
    N   1.0     0.365259     0.331469     0.662468  Biso 1.000000     N
    N   1.0     0.868068     0.331232     0.662526  Biso 1.000000     N
    N   1.0     0.435594     0.295377     0.609854  Biso 1.000000     N
    N   1.0     0.938446     0.295199     0.609968  Biso 1.000000     N
    N   1.0     0.129889     0.554142     0.933574  Biso 1.000000     N
    N   1.0     0.632893     0.554286     0.933511  Biso 1.000000     N
    N   1.0     0.145437     0.659237     0.959038  Biso 1.000000     N
    N   1.0     0.648401     0.659311     0.959068  Biso 1.000000     N
    N   1.0     0.195207     0.660462     0.026335  Biso 1.000000     N
    N   1.0     0.698093     0.660484     0.026504  Biso 1.000000     N
    N   1.0     0.215415     0.556868     0.053565  Biso 1.000000     N
    N   1.0     0.718222     0.556938     0.053784  Biso 1.000000     N
    O   1.0     0.015528     0.207161     0.357050  Biso 1.000000     O
    O   1.0     0.518362     0.207194     0.357107  Biso 1.000000     O
    O   1.0     0.268134     0.810533     0.656707  Biso 1.000000     O
    O   1.0     0.771015     0.810501     0.656726  Biso 1.000000     O
    O   1.0     0.391578     0.659116     0.206555  Biso 1.000000     O
    O   1.0     0.894440     0.659129     0.206577  Biso 1.000000     O
    O   1.0     0.143699     0.358550     0.806668  Biso 1.000000     O
    O   1.0     0.646580     0.358594     0.806725  Biso 1.000000     O
   Cu   1.0     0.417101     0.180507     0.496399  Biso 1.000000    Cu
   Cu   1.0     0.919923     0.180486     0.496489  Biso 1.000000    Cu
   Cu   1.0     0.165561     0.837795     0.520124  Biso 1.000000    Cu
   Cu   1.0     0.668368     0.837865     0.520107  Biso 1.000000    Cu
   Cu   1.0     0.289210     0.519096     0.182149  Biso 1.000000    Cu
   Cu   1.0     0.792167     0.519078     0.182207  Biso 1.000000    Cu
   Cu   1.0     0.041969     0.495890     0.834192  Biso 1.000000    Cu
   Cu   1.0     0.545006     0.495735     0.834192  Biso 1.000000    Cu
