#======================================================================

# CRYSTAL DATA

#----------------------------------------------------------------------

data_VESTA_phase_1


_pd_phase_name                         MOF
_cell_length_a                         15.88800
_cell_length_b                         12.58300
_cell_length_c                         12.61400
_cell_angle_alpha                      89.97400
_cell_angle_beta                       90.10600
_cell_angle_gamma                      89.96800
_symmetry_space_group_name_H-M         "P 1"
_symmetry_Int_Tables_number            1

loop_
_symmetry_equiv_pos_as_xyz
   "x, y, z"

loop_
   _atom_site_label
   _atom_site_occupancy
   _atom_site_fract_x
   _atom_site_fract_y
   _atom_site_fract_z
   _atom_site_adp_type
   _atom_site_B_iso_or_equiv
   _atom_site_type_symbol
    H   1.0     0.227820     0.046538     0.226134  Biso 1.000000     H
    H   1.0     0.727795     0.046597     0.226179  Biso 1.000000     H
    H   1.0     0.246556     0.091761     0.095847  Biso 1.000000     H
    H   1.0     0.746549     0.091805     0.095877  Biso 1.000000     H
    H   1.0     0.342302     0.176053     0.224054  Biso 1.000000     H
    H   1.0     0.842372     0.175991     0.224012  Biso 1.000000     H
    H   1.0     0.254198     0.229106     0.297119  Biso 1.000000     H
    H   1.0     0.754347     0.229061     0.297199  Biso 1.000000     H
    H   1.0     0.331387     0.384530     0.267677  Biso 1.000000     H
    H   1.0     0.831546     0.384443     0.267765  Biso 1.000000     H
    H   1.0     0.396786     0.354482     0.156201  Biso 1.000000     H
    H   1.0     0.896873     0.354450     0.156227  Biso 1.000000     H
    H   1.0     0.351433     0.544838     0.161937  Biso 1.000000     H
    H   1.0     0.851601     0.544781     0.162056  Biso 1.000000     H
    H   1.0     0.244013     0.505536     0.162422  Biso 1.000000     H
    H   1.0     0.744140     0.505579     0.162764  Biso 1.000000     H
    H   1.0     0.477375     0.952299     0.774731  Biso 1.000000     H
    H   1.0     0.977522     0.952317     0.774564  Biso 1.000000     H
    H   1.0     0.496401     0.906648     0.904934  Biso 1.000000     H
    H   1.0     0.996604     0.906744     0.904773  Biso 1.000000     H
    H   1.0     0.092287     0.822947     0.776395  Biso 1.000000     H
    H   1.0     0.592295     0.823114     0.776666  Biso 1.000000     H
    H   1.0     0.004098     0.769949     0.703162  Biso 1.000000     H
    H   1.0     0.504253     0.770062     0.703199  Biso 1.000000     H
    H   1.0     0.081644     0.614592     0.732633  Biso 1.000000     H
    H   1.0     0.581722     0.614594     0.732683  Biso 1.000000     H
    H   1.0     0.146981     0.644080     0.844562  Biso 1.000000     H
    H   1.0     0.647033     0.644201     0.844605  Biso 1.000000     H
    H   1.0     0.101424     0.453869     0.837766  Biso 1.000000     H
    H   1.0     0.601597     0.453948     0.837935  Biso 1.000000     H
    H   1.0    -0.005972     0.493501     0.836980  Biso 1.000000     H
    H   1.0     0.494181     0.493463     0.837058  Biso 1.000000     H
    H   1.0     0.102549     0.774420     0.047828  Biso 1.000000     H
    H   1.0     0.602689     0.774090     0.048024  Biso 1.000000     H
    H   1.0     0.121183     0.904930     0.093431  Biso 1.000000     H
    H   1.0     0.621367     0.904636     0.093412  Biso 1.000000     H
    H   1.0     0.217336     0.776230     0.176950  Biso 1.000000     H
    H   1.0     0.717432     0.776043     0.177181  Biso 1.000000     H
    H   1.0     0.129407     0.702622     0.229755  Biso 1.000000     H
    H   1.0     0.629463     0.702546     0.230054  Biso 1.000000     H
    H   1.0     0.206783     0.731911     0.384824  Biso 1.000000     H
    H   1.0     0.706861     0.731957     0.385049  Biso 1.000000     H
    H   1.0     0.271973     0.844062     0.355489  Biso 1.000000     H
    H   1.0     0.772063     0.844093     0.355654  Biso 1.000000     H
    H   1.0     0.226563     0.837271     0.545159  Biso 1.000000     H
    H   1.0     0.726690     0.837441     0.545308  Biso 1.000000     H
    H   1.0     0.119130     0.836346     0.505618  Biso 1.000000     H
    H   1.0     0.619250     0.836440     0.505831  Biso 1.000000     H
    H   1.0     0.352781     0.224880     0.952035  Biso 1.000000     H
    H   1.0     0.852801     0.224945     0.952288  Biso 1.000000     H
    H   1.0     0.371842     0.094482     0.906542  Biso 1.000000     H
    H   1.0     0.871782     0.094544     0.906750  Biso 1.000000     H
    H   1.0     0.467294     0.223400     0.823067  Biso 1.000000     H
    H   1.0     0.967334     0.223386     0.823341  Biso 1.000000     H
    H   1.0     0.379036     0.296821     0.770211  Biso 1.000000     H
    H   1.0     0.879137     0.296948     0.770519  Biso 1.000000     H
    H   1.0     0.456408     0.267519     0.615014  Biso 1.000000     H
    H   1.0     0.956533     0.267703     0.615343  Biso 1.000000     H
    H   1.0     0.021853     0.155592     0.645109  Biso 1.000000     H
    H   1.0     0.521799     0.155474     0.644802  Biso 1.000000     H
    H   1.0     0.476167     0.162003     0.454938  Biso 1.000000     H
    H   1.0     0.976438     0.162228     0.455242  Biso 1.000000     H
    H   1.0     0.368789     0.162649     0.494221  Biso 1.000000     H
    H   1.0     0.868998     0.163037     0.494275  Biso 1.000000     H
    C   1.0     0.131406     0.144962     0.162339  Biso 1.000000     C
    C   1.0     0.631424     0.145108     0.162445  Biso 1.000000     C
    C   1.0     0.221917     0.115919     0.173787  Biso 1.000000     C
    C   1.0     0.721925     0.115971     0.173821  Biso 1.000000     C
    C   1.0     0.276963     0.204813     0.218241  Biso 1.000000     C
    C   1.0     0.777037     0.204795     0.218276  Biso 1.000000     C
    C   1.0     0.332804     0.377540     0.180597  Biso 1.000000     C
    C   1.0     0.832904     0.377523     0.180671  Biso 1.000000     C
    C   1.0     0.307076     0.484442     0.132958  Biso 1.000000     C
    C   1.0     0.807152     0.484466     0.133139  Biso 1.000000     C
    C   1.0     0.305973     0.485495     0.014896  Biso 1.000000     C
    C   1.0     0.806057     0.485493     0.015068  Biso 1.000000     C
    C   1.0     0.381375     0.853224     0.837705  Biso 1.000000     C
    C   1.0     0.881453     0.853497     0.837759  Biso 1.000000     C
    C   1.0     0.471769     0.882718     0.826824  Biso 1.000000     C
    C   1.0     0.971875     0.882788     0.826718  Biso 1.000000     C
    C   1.0     0.027000     0.794132     0.782112  Biso 1.000000     C
    C   1.0     0.527029     0.794187     0.782224  Biso 1.000000     C
    C   1.0     0.082988     0.621292     0.819748  Biso 1.000000     C
    C   1.0     0.583053     0.621341     0.819796  Biso 1.000000     C
    C   1.0     0.057121     0.514252     0.866823  Biso 1.000000     C
    C   1.0     0.557247     0.514304     0.866932  Biso 1.000000     C
    C   1.0     0.056137     0.512664     0.984896  Biso 1.000000     C
    C   1.0     0.556218     0.512760     0.985002  Biso 1.000000     C
    C   1.0     0.006277     0.837343     0.146338  Biso 1.000000     C
    C   1.0     0.506386     0.837287     0.146307  Biso 1.000000     C
    C   1.0     0.096741     0.826573     0.117221  Biso 1.000000     C
    C   1.0     0.596866     0.826347     0.117334  Biso 1.000000     C
    C   1.0     0.152055     0.781843     0.205684  Biso 1.000000     C
    C   1.0     0.652146     0.781718     0.205883  Biso 1.000000     C
    C   1.0     0.208014     0.819248     0.378167  Biso 1.000000     C
    C   1.0     0.708100     0.819289     0.378319  Biso 1.000000     C
    C   1.0     0.182118     0.866362     0.484912  Biso 1.000000     C
    C   1.0     0.682223     0.866455     0.485047  Biso 1.000000     C
    C   1.0     0.180864     0.984717     0.486350  Biso 1.000000     C
    C   1.0     0.680890     0.984808     0.486472  Biso 1.000000     C
    C   1.0     0.256503     0.161320     0.853572  Biso 1.000000     C
    C   1.0     0.756505     0.161529     0.853719  Biso 1.000000     C
    C   1.0     0.347003     0.172682     0.882655  Biso 1.000000     C
    C   1.0     0.847001     0.172780     0.882884  Biso 1.000000     C
    C   1.0     0.401964     0.217667     0.794255  Biso 1.000000     C
    C   1.0     0.902004     0.217752     0.794513  Biso 1.000000     C
    C   1.0     0.457788     0.180199     0.621870  Biso 1.000000     C
    C   1.0     0.957867     0.180376     0.622116  Biso 1.000000     C
    C   1.0     0.431892     0.132852     0.515118  Biso 1.000000     C
    C   1.0     0.932038     0.133114     0.515296  Biso 1.000000     C
    C   1.0     0.430911     0.014489     0.513711  Biso 1.000000     C
    C   1.0     0.930964     0.014751     0.513882  Biso 1.000000     C
    N   1.0     0.102545     0.222817     0.099051  Biso 1.000000     N
    N   1.0     0.602547     0.223019     0.099239  Biso 1.000000     N
    N   1.0     0.017370     0.224854     0.107605  Biso 1.000000     N
    N   1.0     0.517383     0.225126     0.107976  Biso 1.000000     N
    N   1.0     0.494735     0.150166     0.174353  Biso 1.000000     N
    N   1.0     0.994688     0.149976     0.174067  Biso 1.000000     N
    N   1.0     0.065163     0.098902     0.209851  Biso 1.000000     N
    N   1.0     0.565219     0.099024     0.209999  Biso 1.000000     N
    N   1.0     0.259978     0.418966     0.954928  Biso 1.000000     N
    N   1.0     0.759964     0.419086     0.955071  Biso 1.000000     N
    N   1.0     0.275256     0.443407     0.851525  Biso 1.000000     N
    N   1.0     0.775267     0.443527     0.851677  Biso 1.000000     N
    N   1.0     0.328951     0.522685     0.848706  Biso 1.000000     N
    N   1.0     0.828898     0.522872     0.848882  Biso 1.000000     N
    N   1.0     0.349127     0.550329     0.950247  Biso 1.000000     N
    N   1.0     0.849001     0.550557     0.950429  Biso 1.000000     N
    N   1.0     0.352566     0.775125     0.900570  Biso 1.000000     N
    N   1.0     0.852608     0.775324     0.900509  Biso 1.000000     N
    N   1.0     0.267417     0.772935     0.891193  Biso 1.000000     N
    N   1.0     0.767441     0.773387     0.891333  Biso 1.000000     N
    N   1.0     0.244726     0.848010     0.824819  Biso 1.000000     N
    N   1.0     0.744789     0.848614     0.825098  Biso 1.000000     N
    N   1.0     0.315167     0.899348     0.789805  Biso 1.000000     N
    N   1.0     0.815261     0.899818     0.790007  Biso 1.000000     N
    N   1.0     0.010149     0.578985     0.044982  Biso 1.000000     N
    N   1.0     0.510152     0.579027     0.045044  Biso 1.000000     N
    N   1.0     0.025590     0.554271     0.148353  Biso 1.000000     N
    N   1.0     0.525543     0.554325     0.148429  Biso 1.000000     N
    N   1.0     0.079262     0.474877     0.151045  Biso 1.000000     N
    N   1.0     0.579289     0.475015     0.151172  Biso 1.000000     N
    N   1.0     0.099255     0.447459     0.049469  Biso 1.000000     N
    N   1.0     0.599335     0.447595     0.049610  Biso 1.000000     N
    N   1.0     0.477378     0.899876     0.224425  Biso 1.000000     N
    N   1.0     0.977229     0.899895     0.224469  Biso 1.000000     N
    N   1.0     0.392224     0.890680     0.226061  Biso 1.000000     N
    N   1.0     0.892090     0.890565     0.226178  Biso 1.000000     N
    N   1.0     0.369747     0.824513     0.150820  Biso 1.000000     N
    N   1.0     0.869635     0.824435     0.150894  Biso 1.000000     N
    N   1.0     0.440318     0.789524     0.099814  Biso 1.000000     N
    N   1.0     0.940220     0.789602     0.099806  Biso 1.000000     N
    N   1.0     0.134473     0.044983     0.420421  Biso 1.000000     N
    N   1.0     0.634563     0.045020     0.420427  Biso 1.000000     N
    N   1.0     0.149789     0.148600     0.444948  Biso 1.000000     N
    N   1.0     0.649819     0.148663     0.444916  Biso 1.000000     N
    N   1.0     0.203773     0.151304     0.523892  Biso 1.000000     N
    N   1.0     0.703779     0.151441     0.523882  Biso 1.000000     N
    N   1.0     0.224057     0.049471     0.551198  Biso 1.000000     N
    N   1.0     0.724108     0.049630     0.551232  Biso 1.000000     N
    N   1.0     0.227582     0.098686     0.775366  Biso 1.000000     N
    N   1.0     0.727590     0.099062     0.775384  Biso 1.000000     N
    N   1.0     0.142381     0.107321     0.773672  Biso 1.000000     N
    N   1.0     0.642394     0.107685     0.773656  Biso 1.000000     N
    N   1.0     0.119769     0.173105     0.849103  Biso 1.000000     N
    N   1.0     0.619760     0.173353     0.849171  Biso 1.000000     N
    N   1.0     0.190314     0.208457     0.900166  Biso 1.000000     N
    N   1.0     0.690293     0.208541     0.900391  Biso 1.000000     N
    N   1.0     0.384904     0.954167     0.579750  Biso 1.000000     N
    N   1.0     0.884966     0.954501     0.579994  Biso 1.000000     N
    N   1.0     0.400258     0.850557     0.555153  Biso 1.000000     N
    N   1.0     0.900222     0.850873     0.555409  Biso 1.000000     N
    N   1.0     0.453864     0.847925     0.476062  Biso 1.000000     N
    N   1.0     0.953764     0.848157     0.476247  Biso 1.000000     N
    N   1.0     0.473883     0.949781     0.448717  Biso 1.000000     N
    N   1.0     0.973802     0.949984     0.448801  Biso 1.000000     N
    O   1.0     0.274232     0.295828     0.148160  Biso 1.000000     O
    O   1.0     0.774313     0.295846     0.148264  Biso 1.000000     O
    O   1.0     0.024477     0.703087     0.852080  Biso 1.000000     O
    O   1.0     0.524486     0.703075     0.852095  Biso 1.000000     O
    O   1.0     0.149450     0.851846     0.296543  Biso 1.000000     O
    O   1.0     0.649519     0.851836     0.296664  Biso 1.000000     O
    O   1.0     0.399308     0.147729     0.703342  Biso 1.000000     O
    O   1.0     0.899331     0.147893     0.703519  Biso 1.000000     O
   Cu   1.0     0.173031     0.320601     0.013238  Biso 1.000000    Cu
   Cu   1.0     0.673039     0.320704     0.013337  Biso 1.000000    Cu
   Cu   1.0     0.422942     0.676939     0.986678  Biso 1.000000    Cu
   Cu   1.0     0.922946     0.677052     0.986675  Biso 1.000000    Cu
   Cu   1.0     0.047367     0.986355     0.322624  Biso 1.000000    Cu
   Cu   1.0     0.547464     0.986402     0.322606  Biso 1.000000    Cu
   Cu   1.0     0.297867     0.012677     0.677477  Biso 1.000000    Cu
   Cu   1.0     0.797912     0.013053     0.677593  Biso 1.000000    Cu
