#======================================================================

# CRYSTAL DATA

#----------------------------------------------------------------------

data_VESTA_phase_1


_pd_phase_name                         MOF
_cell_length_a                         15.81400
_cell_length_b                         12.53300
_cell_length_c                         12.57600
_cell_angle_alpha                      90.06000
_cell_angle_beta                       90.35700
_cell_angle_gamma                      89.95500
_symmetry_space_group_name_H-M         "P 1"
_symmetry_Int_Tables_number            1

loop_
_symmetry_equiv_pos_as_xyz
   "x, y, z"

loop_
   _atom_site_label
   _atom_site_occupancy
   _atom_site_fract_x
   _atom_site_fract_y
   _atom_site_fract_z
   _atom_site_adp_type
   _atom_site_B_iso_or_equiv
   _atom_site_type_symbol
    H   1.0     0.409931     0.093483     0.094230  Biso 1.000000     H
    H   1.0     0.909852     0.093493     0.094252  Biso 1.000000     H
    H   1.0     0.429010     0.046751     0.224522  Biso 1.000000     H
    H   1.0     0.928950     0.046850     0.224581  Biso 1.000000     H
    H   1.0     0.402755     0.230052     0.297127  Biso 1.000000     H
    H   1.0     0.902804     0.230186     0.297080  Biso 1.000000     H
    H   1.0     0.313853     0.176661     0.223819  Biso 1.000000     H
    H   1.0     0.813858     0.176843     0.223812  Biso 1.000000     H
    H   1.0     0.258964     0.357414     0.157180  Biso 1.000000     H
    H   1.0     0.759005     0.357465     0.157006  Biso 1.000000     H
    H   1.0     0.326254     0.386850     0.268380  Biso 1.000000     H
    H   1.0     0.826269     0.387055     0.268193  Biso 1.000000     H
    H   1.0     0.413267     0.507572     0.162839  Biso 1.000000     H
    H   1.0     0.913278     0.507676     0.162547  Biso 1.000000     H
    H   1.0     0.305473     0.547769     0.161921  Biso 1.000000     H
    H   1.0     0.805489     0.547848     0.161583  Biso 1.000000     H
    H   1.0     0.159236     0.908841     0.902665  Biso 1.000000     H
    H   1.0     0.659120     0.908919     0.902835  Biso 1.000000     H
    H   1.0     0.178394     0.953304     0.771980  Biso 1.000000     H
    H   1.0     0.678361     0.953521     0.772214  Biso 1.000000     H
    H   1.0     0.151973     0.768777     0.702022  Biso 1.000000     H
    H   1.0     0.652225     0.768990     0.702081  Biso 1.000000     H
    H   1.0     0.063248     0.824103     0.773079  Biso 1.000000     H
    H   1.0     0.563357     0.824159     0.772977  Biso 1.000000     H
    H   1.0     0.007575     0.644288     0.842440  Biso 1.000000     H
    H   1.0     0.507704     0.644267     0.842043  Biso 1.000000     H
    H   1.0     0.074120     0.613805     0.731805  Biso 1.000000     H
    H   1.0     0.574440     0.613935     0.731547  Biso 1.000000     H
    H   1.0     0.161642     0.493490     0.838437  Biso 1.000000     H
    H   1.0     0.661798     0.493514     0.838195  Biso 1.000000     H
    H   1.0     0.053801     0.453822     0.839444  Biso 1.000000     H
    H   1.0     0.553946     0.453864     0.839102  Biso 1.000000     H
    H   1.0     0.033416     0.904665     0.092937  Biso 1.000000     H
    H   1.0     0.533028     0.904294     0.092940  Biso 1.000000     H
    H   1.0     0.053046     0.773947     0.047204  Biso 1.000000     H
    H   1.0     0.552651     0.773511     0.047441  Biso 1.000000     H
    H   1.0     0.027568     0.701912     0.230007  Biso 1.000000     H
    H   1.0     0.527360     0.702088     0.230817  Biso 1.000000     H
    H   1.0     0.437970     0.773435     0.175935  Biso 1.000000     H
    H   1.0     0.938359     0.774282     0.176113  Biso 1.000000     H
    H   1.0     0.382255     0.841858     0.355581  Biso 1.000000     H
    H   1.0     0.883102     0.842123     0.354746  Biso 1.000000     H
    H   1.0     0.449702     0.730795     0.385119  Biso 1.000000     H
    H   1.0     0.949973     0.730694     0.384905  Biso 1.000000     H
    H   1.0     0.036654     0.836735     0.506834  Biso 1.000000     H
    H   1.0     0.536598     0.836949     0.506474  Biso 1.000000     H
    H   1.0     0.428766     0.837679     0.545417  Biso 1.000000     H
    H   1.0     0.928669     0.837426     0.545071  Biso 1.000000     H
    H   1.0     0.285769     0.095231     0.906505  Biso 1.000000     H
    H   1.0     0.785644     0.095390     0.906374  Biso 1.000000     H
    H   1.0     0.304767     0.226110     0.952746  Biso 1.000000     H
    H   1.0     0.804669     0.226294     0.952531  Biso 1.000000     H
    H   1.0     0.277664     0.298046     0.769600  Biso 1.000000     H
    H   1.0     0.777591     0.298099     0.769310  Biso 1.000000     H
    H   1.0     0.189139     0.225572     0.823503  Biso 1.000000     H
    H   1.0     0.689044     0.225692     0.823251  Biso 1.000000     H
    H   1.0     0.133119     0.158028     0.643300  Biso 1.000000     H
    H   1.0     0.633071     0.157857     0.643086  Biso 1.000000     H
    H   1.0     0.200222     0.268981     0.613764  Biso 1.000000     H
    H   1.0     0.700135     0.268819     0.613458  Biso 1.000000     H
    H   1.0     0.286793     0.162129     0.493688  Biso 1.000000     H
    H   1.0     0.786827     0.161851     0.493604  Biso 1.000000     H
    H   1.0     0.178839     0.161254     0.453681  Biso 1.000000     H
    H   1.0     0.678909     0.160962     0.453481  Biso 1.000000     H
    C   1.0     0.025483     0.146514     0.162736  Biso 1.000000     C
    C   1.0     0.525533     0.146541     0.162813  Biso 1.000000     C
    C   1.0     0.434702     0.116964     0.172895  Biso 1.000000     C
    C   1.0     0.934665     0.117007     0.172885  Biso 1.000000     C
    C   1.0     0.379361     0.205726     0.217976  Biso 1.000000     C
    C   1.0     0.879381     0.205846     0.217947  Biso 1.000000     C
    C   1.0     0.323699     0.379748     0.181042  Biso 1.000000     C
    C   1.0     0.823727     0.379862     0.180862  Biso 1.000000     C
    C   1.0     0.349718     0.486743     0.133117  Biso 1.000000     C
    C   1.0     0.849739     0.486804     0.132825  Biso 1.000000     C
    C   1.0     0.350301     0.487476     0.014700  Biso 1.000000     C
    C   1.0     0.850320     0.487468     0.014399  Biso 1.000000     C
    C   1.0     0.275034     0.854780     0.837230  Biso 1.000000     C
    C   1.0     0.775037     0.855097     0.837536  Biso 1.000000     C
    C   1.0     0.184124     0.883963     0.824849  Biso 1.000000     C
    C   1.0     0.684112     0.884149     0.825039  Biso 1.000000     C
    C   1.0     0.128653     0.794619     0.780368  Biso 1.000000     C
    C   1.0     0.628775     0.794753     0.780388  Biso 1.000000     C
    C   1.0     0.072127     0.621566     0.819070  Biso 1.000000     C
    C   1.0     0.572305     0.621622     0.818812  Biso 1.000000     C
    C   1.0     0.098398     0.514850     0.867896  Biso 1.000000     C
    C   1.0     0.598539     0.514874     0.867605  Biso 1.000000     C
    C   1.0     0.100029     0.514931     0.986328  Biso 1.000000     C
    C   1.0     0.600113     0.514905     0.986032  Biso 1.000000     C
    C   1.0     0.149687     0.838312     0.146418  Biso 1.000000     C
    C   1.0     0.649286     0.838020     0.146526  Biso 1.000000     C
    C   1.0     0.058773     0.826343     0.116912  Biso 1.000000     C
    C   1.0     0.558359     0.826006     0.117076  Biso 1.000000     C
    C   1.0     0.003910     0.780928     0.205381  Biso 1.000000     C
    C   1.0     0.503391     0.780761     0.205560  Biso 1.000000     C
    C   1.0     0.447022     0.818408     0.378200  Biso 1.000000     C
    C   1.0     0.947666     0.818324     0.377968  Biso 1.000000     C
    C   1.0     0.473165     0.866674     0.485126  Biso 1.000000     C
    C   1.0     0.973325     0.866464     0.485105  Biso 1.000000     C
    C   1.0     0.474180     0.985528     0.486165  Biso 1.000000     C
    C   1.0     0.974309     0.985307     0.486172  Biso 1.000000     C
    C   1.0     0.401106     0.162957     0.853798  Biso 1.000000     C
    C   1.0     0.900990     0.163039     0.853639  Biso 1.000000     C
    C   1.0     0.310320     0.173914     0.882942  Biso 1.000000     C
    C   1.0     0.810207     0.174052     0.882760  Biso 1.000000     C
    C   1.0     0.254459     0.218998     0.794328  Biso 1.000000     C
    C   1.0     0.754369     0.219078     0.794100  Biso 1.000000     C
    C   1.0     0.197745     0.181395     0.621046  Biso 1.000000     C
    C   1.0     0.697697     0.181240     0.620847  Biso 1.000000     C
    C   1.0     0.223465     0.132605     0.514605  Biso 1.000000     C
    C   1.0     0.723486     0.132341     0.514478  Biso 1.000000     C
    C   1.0     0.224530     0.013776     0.514317  Biso 1.000000     C
    C   1.0     0.724536     0.013502     0.514271  Biso 1.000000     C
    N   1.0     0.054766     0.225001     0.100365  Biso 1.000000     N
    N   1.0     0.554810     0.225195     0.100642  Biso 1.000000     N
    N   1.0     0.140208     0.227074     0.110745  Biso 1.000000     N
    N   1.0     0.640255     0.227202     0.110982  Biso 1.000000     N
    N   1.0     0.162693     0.151594     0.177449  Biso 1.000000     N
    N   1.0     0.662750     0.151539     0.177484  Biso 1.000000     N
    N   1.0     0.091776     0.100206     0.211447  Biso 1.000000     N
    N   1.0     0.591835     0.100075     0.211362  Biso 1.000000     N
    N   1.0     0.396617     0.421014     0.954671  Biso 1.000000     N
    N   1.0     0.896598     0.420908     0.954396  Biso 1.000000     N
    N   1.0     0.380727     0.445203     0.850847  Biso 1.000000     N
    N   1.0     0.880753     0.445128     0.850629  Biso 1.000000     N
    N   1.0     0.326393     0.524429     0.847819  Biso 1.000000     N
    N   1.0     0.826460     0.524458     0.847588  Biso 1.000000     N
    N   1.0     0.306459     0.552170     0.949646  Biso 1.000000     N
    N   1.0     0.806552     0.552254     0.949347  Biso 1.000000     N
    N   1.0     0.304038     0.776724     0.900789  Biso 1.000000     N
    N   1.0     0.804042     0.777074     0.901138  Biso 1.000000     N
    N   1.0     0.389630     0.775006     0.893275  Biso 1.000000     N
    N   1.0     0.889634     0.775381     0.893640  Biso 1.000000     N
    N   1.0     0.412490     0.850419     0.827176  Biso 1.000000     N
    N   1.0     0.912492     0.850783     0.827526  Biso 1.000000     N
    N   1.0     0.341682     0.901370     0.790665  Biso 1.000000     N
    N   1.0     0.841681     0.901710     0.790977  Biso 1.000000     N
    N   1.0     0.146684     0.581796     0.046084  Biso 1.000000     N
    N   1.0     0.646714     0.581742     0.045858  Biso 1.000000     N
    N   1.0     0.131988     0.557890     0.149938  Biso 1.000000     N
    N   1.0     0.631964     0.557812     0.149755  Biso 1.000000     N
    N   1.0     0.078040     0.478345     0.153308  Biso 1.000000     N
    N   1.0     0.578060     0.478278     0.153061  Biso 1.000000     N
    N   1.0     0.057214     0.450191     0.051654  Biso 1.000000     N
    N   1.0     0.557277     0.450162     0.051318  Biso 1.000000     N
    N   1.0     0.178568     0.900534     0.225664  Biso 1.000000     N
    N   1.0     0.678172     0.900238     0.225744  Biso 1.000000     N
    N   1.0     0.264139     0.892869     0.227377  Biso 1.000000     N
    N   1.0     0.763805     0.892705     0.227387  Biso 1.000000     N
    N   1.0     0.287138     0.827914     0.150875  Biso 1.000000     N
    N   1.0     0.786807     0.827841     0.150884  Biso 1.000000     N
    N   1.0     0.216414     0.792401     0.099144  Biso 1.000000     N
    N   1.0     0.716033     0.792213     0.099201  Biso 1.000000     N
    N   1.0     0.020385     0.045587     0.420014  Biso 1.000000     N
    N   1.0     0.520316     0.045784     0.419998  Biso 1.000000     N
    N   1.0     0.005303     0.149763     0.444553  Biso 1.000000     N
    N   1.0     0.505300     0.149900     0.444579  Biso 1.000000     N
    N   1.0     0.451645     0.152949     0.523816  Biso 1.000000     N
    N   1.0     0.951691     0.152793     0.523756  Biso 1.000000     N
    N   1.0     0.431350     0.050836     0.551174  Biso 1.000000     N
    N   1.0     0.931421     0.050605     0.551114  Biso 1.000000     N
    N   1.0     0.430099     0.100025     0.775568  Biso 1.000000     N
    N   1.0     0.929998     0.100299     0.775271  Biso 1.000000     N
    N   1.0     0.015501     0.109386     0.773748  Biso 1.000000     N
    N   1.0     0.515566     0.109262     0.773897  Biso 1.000000     N
    N   1.0     0.038279     0.175618     0.849521  Biso 1.000000     N
    N   1.0     0.538361     0.175761     0.849486  Biso 1.000000     N
    N   1.0     0.467630     0.210828     0.900493  Biso 1.000000     N
    N   1.0     0.967516     0.210672     0.900539  Biso 1.000000     N
    N   1.0     0.271505     0.953693     0.580501  Biso 1.000000     N
    N   1.0     0.771542     0.953457     0.580479  Biso 1.000000     N
    N   1.0     0.255953     0.849443     0.556638  Biso 1.000000     N
    N   1.0     0.755974     0.849259     0.556660  Biso 1.000000     N
    N   1.0     0.201219     0.846186     0.477755  Biso 1.000000     N
    N   1.0     0.701179     0.845969     0.477787  Biso 1.000000     N
    N   1.0     0.180640     0.948301     0.450072  Biso 1.000000     N
    N   1.0     0.680625     0.948007     0.450046  Biso 1.000000     N
    O   1.0     0.381533     0.297024     0.147820  Biso 1.000000     O
    O   1.0     0.881584     0.297109     0.147750  Biso 1.000000     O
    O   1.0     0.130219     0.704388     0.851991  Biso 1.000000     O
    O   1.0     0.630294     0.704468     0.851957  Biso 1.000000     O
    O   1.0     0.005923     0.851667     0.296366  Biso 1.000000     O
    O   1.0     0.504617     0.852162     0.296033  Biso 1.000000     O
    O   1.0     0.255882     0.147973     0.703657  Biso 1.000000     O
    O   1.0     0.755825     0.147956     0.703519  Biso 1.000000     O
   Cu   1.0     0.484401     0.323242     0.013680  Biso 1.000000    Cu
   Cu   1.0     0.984344     0.323216     0.013693  Biso 1.000000    Cu
   Cu   1.0     0.233408     0.679571     0.986691  Biso 1.000000    Cu
   Cu   1.0     0.733421     0.679613     0.986701  Biso 1.000000    Cu
   Cu   1.0     0.107567     0.986282     0.323144  Biso 1.000000    Cu
   Cu   1.0     0.607456     0.986223     0.323236  Biso 1.000000    Cu
   Cu   1.0     0.359103     0.013399     0.677851  Biso 1.000000    Cu
   Cu   1.0     0.859141     0.013422     0.677740  Biso 1.000000    Cu
