#======================================================================

# CRYSTAL DATA

#----------------------------------------------------------------------

data_VESTA_phase_1


_pd_phase_name                         MOF
_cell_length_a                         15.93700
_cell_length_b                         12.56800
_cell_length_c                         12.59000
_cell_angle_alpha                      90.06900
_cell_angle_beta                       90.18700
_cell_angle_gamma                      89.79500
_symmetry_space_group_name_H-M         "P 1"
_symmetry_Int_Tables_number            1

loop_
_symmetry_equiv_pos_as_xyz
   "x, y, z"

loop_
   _atom_site_label
   _atom_site_occupancy
   _atom_site_fract_x
   _atom_site_fract_y
   _atom_site_fract_z
   _atom_site_adp_type
   _atom_site_B_iso_or_equiv
   _atom_site_type_symbol
    H   1.0     0.185504     0.275299     0.452810  Biso 1.000000     H
    H   1.0     0.685562     0.275214     0.452762  Biso 1.000000     H
    H   1.0     0.167014     0.405898     0.406609  Biso 1.000000     H
    H   1.0     0.667076     0.405824     0.406590  Biso 1.000000     H
    H   1.0     0.070624     0.277474     0.323572  Biso 1.000000     H
    H   1.0     0.570638     0.277445     0.323600  Biso 1.000000     H
    H   1.0     0.157999     0.202641     0.271058  Biso 1.000000     H
    H   1.0     0.657972     0.202595     0.271014  Biso 1.000000     H
    H   1.0     0.081890     0.231535     0.114793  Biso 1.000000     H
    H   1.0     0.581915     0.231491     0.114767  Biso 1.000000     H
    H   1.0     0.016294     0.343614     0.144179  Biso 1.000000     H
    H   1.0     0.516277     0.343531     0.144156  Biso 1.000000     H
    H   1.0     0.061519     0.337234     0.954228  Biso 1.000000     H
    H   1.0     0.561502     0.337239     0.954220  Biso 1.000000     H
    H   1.0     0.168639     0.336443     0.993928  Biso 1.000000     H
    H   1.0     0.668627     0.336402     0.993907  Biso 1.000000     H
    H   1.0     0.435318     0.725761     0.547921  Biso 1.000000     H
    H   1.0     0.935341     0.725725     0.547904  Biso 1.000000     H
    H   1.0     0.416332     0.595117     0.592820  Biso 1.000000     H
    H   1.0     0.916292     0.595096     0.592773  Biso 1.000000     H
    H   1.0     0.320536     0.723681     0.676288  Biso 1.000000     H
    H   1.0     0.820557     0.723703     0.676285  Biso 1.000000     H
    H   1.0     0.407967     0.797455     0.729856  Biso 1.000000     H
    H   1.0     0.908031     0.797420     0.729834  Biso 1.000000     H
    H   1.0     0.330644     0.768030     0.884809  Biso 1.000000     H
    H   1.0     0.830639     0.767984     0.884793  Biso 1.000000     H
    H   1.0     0.265933     0.655880     0.854260  Biso 1.000000     H
    H   1.0     0.765948     0.655822     0.854219  Biso 1.000000     H
    H   1.0     0.310439     0.662324     0.044847  Biso 1.000000     H
    H   1.0     0.810470     0.662279     0.044817  Biso 1.000000     H
    H   1.0     0.417692     0.662906     0.006579  Biso 1.000000     H
    H   1.0     0.917709     0.662844     0.006520  Biso 1.000000     H
    H   1.0     0.061194     0.546551     0.274366  Biso 1.000000     H
    H   1.0     0.561144     0.546561     0.274295  Biso 1.000000     H
    H   1.0     0.042270     0.591975     0.404872  Biso 1.000000     H
    H   1.0     0.542182     0.591984     0.404783  Biso 1.000000     H
    H   1.0     0.446160     0.675879     0.276422  Biso 1.000000     H
    H   1.0     0.946154     0.675775     0.276608  Biso 1.000000     H
    H   1.0     0.033421     0.728817     0.202903  Biso 1.000000     H
    H   1.0     0.533532     0.728895     0.202859  Biso 1.000000     H
    H   1.0     0.456556     0.885159     0.232432  Biso 1.000000     H
    H   1.0     0.956447     0.885091     0.232525  Biso 1.000000     H
    H   1.0     0.391407     0.854692     0.343815  Biso 1.000000     H
    H   1.0     0.891385     0.854594     0.343978  Biso 1.000000     H
    H   1.0     0.435969     0.045259     0.339166  Biso 1.000000     H
    H   1.0     0.935923     0.045196     0.339242  Biso 1.000000     H
    H   1.0     0.043134     0.005922     0.338558  Biso 1.000000     H
    H   1.0     0.543199     0.005985     0.338533  Biso 1.000000     H
    H   1.0     0.309974     0.453091     0.725427  Biso 1.000000     H
    H   1.0     0.810060     0.453018     0.725478  Biso 1.000000     H
    H   1.0     0.290967     0.407296     0.595016  Biso 1.000000     H
    H   1.0     0.791001     0.407246     0.595066  Biso 1.000000     H
    H   1.0     0.195240     0.324564     0.723366  Biso 1.000000     H
    H   1.0     0.695328     0.324393     0.723344  Biso 1.000000     H
    H   1.0     0.282898     0.271083     0.797332  Biso 1.000000     H
    H   1.0     0.782996     0.271068     0.797404  Biso 1.000000     H
    H   1.0     0.206013     0.115960     0.768414  Biso 1.000000     H
    H   1.0     0.706140     0.115846     0.768451  Biso 1.000000     H
    H   1.0     0.140648     0.145265     0.656231  Biso 1.000000     H
    H   1.0     0.640830     0.145260     0.656245  Biso 1.000000     H
    H   1.0     0.186035     0.954671     0.663516  Biso 1.000000     H
    H   1.0     0.686094     0.954609     0.663520  Biso 1.000000     H
    H   1.0     0.293133     0.993743     0.664272  Biso 1.000000     H
    H   1.0     0.793215     0.993568     0.664295  Biso 1.000000     H
    C   1.0     0.281233     0.337080     0.353516  Biso 1.000000     C
    C   1.0     0.781275     0.337003     0.353434  Biso 1.000000     C
    C   1.0     0.191140     0.327117     0.383034  Biso 1.000000     C
    C   1.0     0.691190     0.327044     0.382995  Biso 1.000000     C
    C   1.0     0.135685     0.282330     0.294741  Biso 1.000000     C
    C   1.0     0.635689     0.282290     0.294730  Biso 1.000000     C
    C   1.0     0.080191     0.318974     0.121558  Biso 1.000000     C
    C   1.0     0.580186     0.318929     0.121544  Biso 1.000000     C
    C   1.0     0.105720     0.366307     0.014715  Biso 1.000000     C
    C   1.0     0.605716     0.366280     0.014708  Biso 1.000000     C
    C   1.0     0.106485     0.484790     0.013538  Biso 1.000000     C
    C   1.0     0.606503     0.484767     0.013549  Biso 1.000000     C
    C   1.0     0.030963     0.661267     0.647075  Biso 1.000000     C
    C   1.0     0.530989     0.661389     0.647109  Biso 1.000000     C
    C   1.0     0.440871     0.673266     0.617279  Biso 1.000000     C
    C   1.0     0.940865     0.673219     0.617259  Biso 1.000000     C
    C   1.0     0.385618     0.718125     0.705568  Biso 1.000000     C
    C   1.0     0.885637     0.718104     0.705562  Biso 1.000000     C
    C   1.0     0.329573     0.680605     0.877809  Biso 1.000000     C
    C   1.0     0.829585     0.680560     0.877769  Biso 1.000000     C
    C   1.0     0.354985     0.633144     0.984977  Biso 1.000000     C
    C   1.0     0.854999     0.633085     0.984933  Biso 1.000000     C
    C   1.0     0.356290     0.514639     0.986264  Biso 1.000000     C
    C   1.0     0.856308     0.514577     0.986252  Biso 1.000000     C
    C   1.0     0.156739     0.645487     0.338320  Biso 1.000000     C
    C   1.0     0.656716     0.645413     0.338316  Biso 1.000000     C
    C   1.0     0.066650     0.616115     0.326785  Biso 1.000000     C
    C   1.0     0.566616     0.616118     0.326721  Biso 1.000000     C
    C   1.0     0.011163     0.704774     0.282127  Biso 1.000000     C
    C   1.0     0.511195     0.704829     0.282040  Biso 1.000000     C
    C   1.0     0.455158     0.877813     0.319656  Biso 1.000000     C
    C   1.0     0.955113     0.877748     0.319752  Biso 1.000000     C
    C   1.0     0.480437     0.984684     0.367909  Biso 1.000000     C
    C   1.0     0.980400     0.984627     0.367974  Biso 1.000000     C
    C   1.0     0.481446     0.985328     0.486203  Biso 1.000000     C
    C   1.0     0.981457     0.985301     0.486268  Biso 1.000000     C
    C   1.0     0.405608     0.353166     0.662538  Biso 1.000000     C
    C   1.0     0.905671     0.353111     0.662502  Biso 1.000000     C
    C   1.0     0.315508     0.383281     0.673335  Biso 1.000000     C
    C   1.0     0.815579     0.383224     0.673363  Biso 1.000000     C
    C   1.0     0.260292     0.295160     0.718031  Biso 1.000000     C
    C   1.0     0.760407     0.295071     0.718072  Biso 1.000000     C
    C   1.0     0.204504     0.122276     0.681105  Biso 1.000000     C
    C   1.0     0.704662     0.122190     0.681143  Biso 1.000000     C
    C   1.0     0.230220     0.014782     0.634302  Biso 1.000000     C
    C   1.0     0.730318     0.014684     0.634323  Biso 1.000000     C
    C   1.0     0.231060     0.012829     0.516035  Biso 1.000000     C
    C   1.0     0.731146     0.012750     0.516054  Biso 1.000000     C
    N   1.0     0.310115     0.399391     0.275162  Biso 1.000000     N
    N   1.0     0.810144     0.399363     0.275113  Biso 1.000000     N
    N   1.0     0.394959     0.389159     0.273154  Biso 1.000000     N
    N   1.0     0.894988     0.389135     0.273097  Biso 1.000000     N
    N   1.0     0.417399     0.322713     0.348457  Biso 1.000000     N
    N   1.0     0.917440     0.322650     0.348359  Biso 1.000000     N
    N   1.0     0.347076     0.288563     0.399805  Biso 1.000000     N
    N   1.0     0.847123     0.288473     0.399697  Biso 1.000000     N
    N   1.0     0.152870     0.545143     0.079278  Biso 1.000000     N
    N   1.0     0.652903     0.545107     0.079285  Biso 1.000000     N
    N   1.0     0.136871     0.648951     0.055110  Biso 1.000000     N
    N   1.0     0.636928     0.648923     0.055139  Biso 1.000000     N
    N   1.0     0.082417     0.651632     0.976686  Biso 1.000000     N
    N   1.0     0.582501     0.651634     0.976687  Biso 1.000000     N
    N   1.0     0.062481     0.549596     0.949373  Biso 1.000000     N
    N   1.0     0.562531     0.549608     0.949380  Biso 1.000000     N
    N   1.0     0.059529     0.597947     0.725217  Biso 1.000000     N
    N   1.0     0.559560     0.598070     0.725245  Biso 1.000000     N
    N   1.0     0.144462     0.605915     0.727462  Biso 1.000000     N
    N   1.0     0.644495     0.606019     0.727455  Biso 1.000000     N
    N   1.0     0.167333     0.672007     0.652449  Biso 1.000000     N
    N   1.0     0.667361     0.672100     0.652429  Biso 1.000000     N
    N   1.0     0.097175     0.708164     0.601103  Biso 1.000000     N
    N   1.0     0.597196     0.708233     0.601078  Biso 1.000000     N
    N   1.0     0.402589     0.454253     0.920463  Biso 1.000000     N
    N   1.0     0.902581     0.454160     0.920444  Biso 1.000000     N
    N   1.0     0.387348     0.350448     0.944661  Biso 1.000000     N
    N   1.0     0.887323     0.350369     0.944686  Biso 1.000000     N
    N   1.0     0.333456     0.347776     0.023241  Biso 1.000000     N
    N   1.0     0.833440     0.347734     0.023274  Biso 1.000000     N
    N   1.0     0.313143     0.449825     0.050652  Biso 1.000000     N
    N   1.0     0.813142     0.449795     0.050654  Biso 1.000000     N
    N   1.0     0.185451     0.722950     0.402357  Biso 1.000000     N
    N   1.0     0.685420     0.722886     0.402344  Biso 1.000000     N
    N   1.0     0.270286     0.725070     0.393299  Biso 1.000000     N
    N   1.0     0.770257     0.724963     0.393345  Biso 1.000000     N
    N   1.0     0.292925     0.650627     0.325909  Biso 1.000000     N
    N   1.0     0.792906     0.650477     0.326008  Biso 1.000000     N
    N   1.0     0.222750     0.599772     0.289979  Biso 1.000000     N
    N   1.0     0.722733     0.599654     0.290029  Biso 1.000000     N
    N   1.0     0.027909     0.919308     0.546593  Biso 1.000000     N
    N   1.0     0.527931     0.919338     0.546506  Biso 1.000000     N
    N   1.0     0.012047     0.943426     0.650196  Biso 1.000000     N
    N   1.0     0.512027     0.943370     0.650116  Biso 1.000000     N
    N   1.0     0.457564     0.021960     0.652746  Biso 1.000000     N
    N   1.0     0.957650     0.022070     0.652802  Biso 1.000000     N
    N   1.0     0.437520     0.049536     0.550874  Biso 1.000000     N
    N   1.0     0.937573     0.049573     0.550921  Biso 1.000000     N
    N   1.0     0.434238     0.274506     0.599840  Biso 1.000000     N
    N   1.0     0.934291     0.274535     0.599700  Biso 1.000000     N
    N   1.0     0.019119     0.271944     0.609038  Biso 1.000000     N
    N   1.0     0.519086     0.271928     0.609179  Biso 1.000000     N
    N   1.0     0.041886     0.347146     0.675449  Biso 1.000000     N
    N   1.0     0.541836     0.347253     0.675463  Biso 1.000000     N
    N   1.0     0.471704     0.399159     0.710348  Biso 1.000000     N
    N   1.0     0.971773     0.399021     0.710368  Biso 1.000000     N
    N   1.0     0.276939     0.078546     0.455565  Biso 1.000000     N
    N   1.0     0.777009     0.078488     0.455586  Biso 1.000000     N
    N   1.0     0.261172     0.053620     0.352018  Biso 1.000000     N
    N   1.0     0.761234     0.053592     0.352035  Biso 1.000000     N
    N   1.0     0.207410     0.974724     0.349630  Biso 1.000000     N
    N   1.0     0.707513     0.974654     0.349643  Biso 1.000000     N
    N   1.0     0.187678     0.947817     0.451596  Biso 1.000000     N
    N   1.0     0.687772     0.947740     0.451603  Biso 1.000000     N
    O   1.0     0.138462     0.351855     0.203358  Biso 1.000000     O
    O   1.0     0.638439     0.351825     0.203358  Biso 1.000000     O
    O   1.0     0.388343     0.648125     0.796657  Biso 1.000000     O
    O   1.0     0.888368     0.648087     0.796633  Biso 1.000000     O
    O   1.0     0.013833     0.796052     0.352061  Biso 1.000000     O
    O   1.0     0.513844     0.796076     0.352025  Biso 1.000000     O
    O   1.0     0.262788     0.203650     0.648279  Biso 1.000000     O
    O   1.0     0.763007     0.203524     0.648374  Biso 1.000000     O
   Cu   1.0     0.240131     0.486692     0.177103  Biso 1.000000    Cu
   Cu   1.0     0.740137     0.486653     0.177107  Biso 1.000000    Cu
   Cu   1.0     0.489308     0.512313     0.822889  Biso 1.000000    Cu
   Cu   1.0     0.989355     0.512100     0.822882  Biso 1.000000    Cu
   Cu   1.0     0.115203     0.820874     0.489272  Biso 1.000000    Cu
   Cu   1.0     0.615187     0.820872     0.489159  Biso 1.000000    Cu
   Cu   1.0     0.364079     0.176424     0.513501  Biso 1.000000    Cu
   Cu   1.0     0.864113     0.176417     0.513477  Biso 1.000000    Cu
