#======================================================================

# CRYSTAL DATA

#----------------------------------------------------------------------

data_VESTA_phase_1


_pd_phase_name                         MOF
_cell_length_a                         18.64800
_cell_length_b                         15.35300
_cell_length_c                         16.75900
_cell_angle_alpha                      78.61300
_cell_angle_beta                       80.32900
_cell_angle_gamma                      82.18700
_symmetry_space_group_name_H-M         "P 1"
_symmetry_Int_Tables_number            1

loop_
_symmetry_equiv_pos_as_xyz
   "x, y, z"

loop_
   _atom_site_label
   _atom_site_occupancy
   _atom_site_fract_x
   _atom_site_fract_y
   _atom_site_fract_z
   _atom_site_adp_type
   _atom_site_B_iso_or_equiv
   _atom_site_type_symbol
    H   1.0     0.327578     0.953149     0.828731  Biso 1.000000     H
    H   1.0     0.827470     0.953221     0.828599  Biso 1.000000     H
    H   1.0     0.345957     0.885453     0.749922  Biso 1.000000     H
    H   1.0     0.845790     0.885487     0.749815  Biso 1.000000     H
    H   1.0     0.196460     0.000000     0.631322  Biso 1.000000     H
    H   1.0     0.696303     0.000000     0.631218  Biso 1.000000     H
    H   1.0     0.173005     0.937079     0.721158  Biso 1.000000     H
    H   1.0     0.672863     0.936957     0.721091  Biso 1.000000     H
    H   1.0     0.364723     0.996432     0.633471  Biso 1.000000     H
    H   1.0     0.864514     0.996523     0.633418  Biso 1.000000     H
    H   1.0     0.363298     0.077315     0.697992  Biso 1.000000     H
    H   1.0     0.863008     0.077447     0.697922  Biso 1.000000     H
    H   1.0     0.170825     0.042940     0.808016  Biso 1.000000     H
    H   1.0     0.670613     0.042785     0.808018  Biso 1.000000     H
    H   1.0     0.202509     0.130781     0.727301  Biso 1.000000     H
    H   1.0     0.702180     0.130707     0.727317  Biso 1.000000     H
    H   1.0     0.187644     0.803976     0.657192  Biso 1.000000     H
    H   1.0     0.687549     0.803869     0.657028  Biso 1.000000     H
    H   1.0     0.182448     0.889886     0.567950  Biso 1.000000     H
    H   1.0     0.682462     0.889809     0.567792  Biso 1.000000     H
    H   1.0     0.197606     0.783476     0.469542  Biso 1.000000     H
    H   1.0     0.697697     0.783313     0.469403  Biso 1.000000     H
    H   1.0     0.189210     0.698904     0.560355  Biso 1.000000     H
    H   1.0     0.689288     0.698728     0.560209  Biso 1.000000     H
    H   1.0     0.357342     0.805116     0.446432  Biso 1.000000     H
    H   1.0     0.857390     0.805091     0.446397  Biso 1.000000     H
    H   1.0     0.356941     0.877876     0.518318  Biso 1.000000     H
    H   1.0     0.856875     0.877887     0.518283  Biso 1.000000     H
    H   1.0     0.348209     0.759190     0.643340  Biso 1.000000     H
    H   1.0     0.848187     0.759191     0.643299  Biso 1.000000     H
    H   1.0     0.365640     0.684682     0.570291  Biso 1.000000     H
    H   1.0     0.865665     0.684626     0.570299  Biso 1.000000     H
    H   1.0     0.212614     0.531540     0.753447  Biso 1.000000     H
    H   1.0     0.712680     0.531318     0.753193  Biso 1.000000     H
    H   1.0     0.358760     0.556379     0.400891  Biso 1.000000     H
    H   1.0     0.858995     0.556147     0.400948  Biso 1.000000     H
    H   1.0     0.418296     0.944397     0.402142  Biso 1.000000     H
    H   1.0     0.918234     0.944315     0.402101  Biso 1.000000     H
    H   1.0     0.459902     0.068344     0.291497  Biso 1.000000     H
    H   1.0     0.959843     0.068200     0.291376  Biso 1.000000     H
    H   1.0     0.447308     0.102003     0.580478  Biso 1.000000     H
    H   1.0     0.947004     0.101875     0.580333  Biso 1.000000     H
    H   1.0     0.063977     0.743954     0.082624  Biso 1.000000     H
    H   1.0     0.564490     0.744093     0.082659  Biso 1.000000     H
    H   1.0     0.016035     0.597222     0.906586  Biso 1.000000     H
    H   1.0     0.515824     0.597647     0.906791  Biso 1.000000     H
    H   1.0     0.034744     0.690082     0.724612  Biso 1.000000     H
    H   1.0     0.534537     0.690520     0.724815  Biso 1.000000     H
    H   1.0     0.009557     0.977534     0.667251  Biso 1.000000     H
    H   1.0     0.509858     0.977974     0.667452  Biso 1.000000     H
    H   1.0     0.550605     0.950610     0.039392  Biso 1.000000     H
    H   1.0     0.000000     0.950335     0.039008  Biso 1.000000     H
    H   1.0     0.418093     0.645176     0.695429  Biso 1.000000     H
    H   1.0     0.918037     0.645222     0.695560  Biso 1.000000     H
    H   1.0     0.468789     0.527056     0.802008  Biso 1.000000     H
    H   1.0     0.968746     0.526991     0.802040  Biso 1.000000     H
    H   1.0     0.255121     0.190928     0.065631  Biso 1.000000     H
    H   1.0     0.755052     0.190869     0.065558  Biso 1.000000     H
    H   1.0     0.078366     0.295990     0.925573  Biso 1.000000     H
    H   1.0     0.578260     0.296088     0.925606  Biso 1.000000     H
    H   1.0     0.311399     0.102205     0.958041  Biso 1.000000     H
    H   1.0     0.811201     0.102070     0.957973  Biso 1.000000     H
    H   1.0     0.024264     0.460031     0.000000  Biso 1.000000     H
    H   1.0     0.524127     0.460389     0.000000  Biso 1.000000     H
    H   1.0     0.455901     0.080211     0.822704  Biso 1.000000     H
    H   1.0     0.955732     0.079882     0.822488  Biso 1.000000     H
    H   1.0     0.430115     0.220439     0.884001  Biso 1.000000     H
    H   1.0     0.930033     0.220128     0.883770  Biso 1.000000     H
    H   1.0     0.134554     0.208167     0.818643  Biso 1.000000     H
    H   1.0     0.634305     0.208172     0.818686  Biso 1.000000     H
    H   1.0     0.323853     0.300330     0.359855  Biso 1.000000     H
    H   1.0     0.823543     0.300167     0.359685  Biso 1.000000     H
    H   1.0     0.033454     0.689059     0.575556  Biso 1.000000     H
    H   1.0     0.533292     0.689563     0.575733  Biso 1.000000     H
    H   1.0     0.238755     0.147278     0.243989  Biso 1.000000     H
    H   1.0     0.738727     0.147012     0.243738  Biso 1.000000     H
    H   1.0     0.195674     0.000000     0.356971  Biso 1.000000     H
    H   1.0     0.695635     0.000000     0.356762  Biso 1.000000     H
    H   1.0     0.319415     0.457323     0.319415  Biso 1.000000     H
    H   1.0     0.819739     0.456988     0.319521  Biso 1.000000     H
    H   1.0     0.249696     0.218295     0.481626  Biso 1.000000     H
    H   1.0     0.749392     0.218258     0.481521  Biso 1.000000     H
    H   1.0     0.020517     0.181000     0.455901  Biso 1.000000     H
    H   1.0     0.520827     0.181250     0.456103  Biso 1.000000     H
    H   1.0     0.074379     0.597801     0.181684  Biso 1.000000     H
    H   1.0     0.574909     0.597877     0.181637  Biso 1.000000     H
    H   1.0     0.008725     0.965602     0.520407  Biso 1.000000     H
    H   1.0     0.509037     0.966108     0.520588  Biso 1.000000     H
    H   1.0     0.524000     0.097480     0.089852  Biso 1.000000     H
    H   1.0     0.000000     0.097216     0.089452  Biso 1.000000     H
    H   1.0     0.366840     0.819169     0.906520  Biso 1.000000     H
    H   1.0     0.866671     0.819056     0.906397  Biso 1.000000     H
    H   1.0     0.388084     0.670701     0.994405  Biso 1.000000     H
    H   1.0     0.887964     0.670340     0.993933  Biso 1.000000     H
    H   1.0     0.192040     0.592949     0.938227  Biso 1.000000     H
    H   1.0     0.691905     0.592886     0.937503  Biso 1.000000     H
    H   1.0     0.172027     0.740853     0.846779  Biso 1.000000     H
    H   1.0     0.671894     0.740995     0.846328  Biso 1.000000     H
    H   1.0     0.097484     0.576976     0.365493  Biso 1.000000     H
    H   1.0     0.597799     0.576729     0.365274  Biso 1.000000     H
    H   1.0     0.264780     0.413688     0.861333  Biso 1.000000     H
    H   1.0     0.764856     0.413355     0.860988  Biso 1.000000     H
    H   1.0     0.136060     0.676499     0.446830  Biso 1.000000     H
    H   1.0     0.636286     0.676339     0.446589  Biso 1.000000     H
    C   1.0     0.267774     0.003081     0.725006  Biso 1.000000     C
    C   1.0     0.767569     0.003080     0.724936  Biso 1.000000     C
    C   1.0     0.303352     0.926037     0.784625  Biso 1.000000     C
    C   1.0     0.803212     0.926085     0.784533  Biso 1.000000     C
    C   1.0     0.218786     0.965408     0.677667  Biso 1.000000     C
    C   1.0     0.718639     0.965299     0.677602  Biso 1.000000     C
    C   1.0     0.329774     0.047292     0.664435  Biso 1.000000     C
    C   1.0     0.829523     0.047362     0.664371  Biso 1.000000     C
    C   1.0     0.219715     0.071890     0.771784  Biso 1.000000     C
    C   1.0     0.719457     0.071820     0.771764  Biso 1.000000     C
    C   1.0     0.220065     0.845896     0.606471  Biso 1.000000     C
    C   1.0     0.720023     0.845794     0.606365  Biso 1.000000     C
    C   1.0     0.273136     0.786504     0.554073  Biso 1.000000     C
    C   1.0     0.773147     0.786413     0.554002  Biso 1.000000     C
    C   1.0     0.228123     0.735844     0.513322  Biso 1.000000     C
    C   1.0     0.728203     0.735703     0.513208  Biso 1.000000     C
    C   1.0     0.322350     0.845400     0.488483  Biso 1.000000     C
    C   1.0     0.822341     0.845347     0.488432  Biso 1.000000     C
    C   1.0     0.322675     0.721396     0.608302  Biso 1.000000     C
    C   1.0     0.822680     0.721354     0.608274  Biso 1.000000     C
    C   1.0     0.311647     0.595937     0.718564  Biso 1.000000     C
    C   1.0     0.811655     0.595846     0.718499  Biso 1.000000     C
    C   1.0     0.268674     0.529932     0.764831  Biso 1.000000     C
    C   1.0     0.768718     0.529741     0.764637  Biso 1.000000     C
    C   1.0     0.301540     0.560195     0.392921  Biso 1.000000     C
    C   1.0     0.801788     0.559962     0.392922  Biso 1.000000     C
    C   1.0     0.304026     0.977142     0.385424  Biso 1.000000     C
    C   1.0     0.803976     0.976993     0.385303  Biso 1.000000     C
    C   1.0     0.378736     0.988701     0.368072  Biso 1.000000     C
    C   1.0     0.878682     0.988571     0.367985  Biso 1.000000     C
    C   1.0     0.402240     0.057601     0.305653  Biso 1.000000     C
    C   1.0     0.902188     0.057426     0.305532  Biso 1.000000     C
    C   1.0     0.266685     0.789851     0.872620  Biso 1.000000     C
    C   1.0     0.766550     0.789830     0.872360  Biso 1.000000     C
    C   1.0     0.343400     0.155046     0.538730  Biso 1.000000     C
    C   1.0     0.843103     0.154987     0.538607  Biso 1.000000     C
    C   1.0     0.419895     0.143987     0.531860  Biso 1.000000     C
    C   1.0     0.919595     0.143852     0.531708  Biso 1.000000     C
    C   1.0     0.016123     0.917795     0.897185  Biso 1.000000     C
    C   1.0     0.516215     0.918118     0.897443  Biso 1.000000     C
    C   1.0     0.021413     0.837875     0.795297  Biso 1.000000     C
    C   1.0     0.521454     0.838266     0.795512  Biso 1.000000     C
    C   1.0     0.032038     0.765922     0.925980  Biso 1.000000     C
    C   1.0     0.532125     0.766245     0.926166  Biso 1.000000     C
    C   1.0     0.039351     0.682021     0.986380  Biso 1.000000     C
    C   1.0     0.539489     0.682309     0.986511  Biso 1.000000     C
    C   1.0     0.055282     0.682011     0.065210  Biso 1.000000     C
    C   1.0     0.555643     0.682199     0.065266  Biso 1.000000     C
    C   1.0     0.029124     0.600609     0.966645  Biso 1.000000     C
    C   1.0     0.529084     0.600955     0.966794  Biso 1.000000     C
    C   1.0     0.021350     0.834349     0.707599  Biso 1.000000     C
    C   1.0     0.521401     0.834785     0.707801  Biso 1.000000     C
    C   1.0     0.028662     0.752248     0.680807  Biso 1.000000     C
    C   1.0     0.528582     0.752700     0.681002  Biso 1.000000     C
    C   1.0     0.014514     0.912592     0.648796  Biso 1.000000     C
    C   1.0     0.514717     0.913047     0.648992  Biso 1.000000     C
    C   1.0     0.524973     0.009472     0.002833  Biso 1.000000     C
    C   1.0     0.000000     0.009184     0.002484  Biso 1.000000     C
    C   1.0     0.505236     0.004432     0.926922  Biso 1.000000     C
    C   1.0     0.000000     0.004128     0.926629  Biso 1.000000     C
    C   1.0     0.473819     0.295710     0.328279  Biso 1.000000     C
    C   1.0     0.973577     0.295517     0.328153  Biso 1.000000     C
    C   1.0     0.427728     0.246144     0.400198  Biso 1.000000     C
    C   1.0     0.927432     0.245955     0.400019  Biso 1.000000     C
    C   1.0     0.124756     0.296288     0.070859  Biso 1.000000     C
    C   1.0     0.624823     0.296396     0.070827  Biso 1.000000     C
    C   1.0     0.161502     0.247904     0.000000  Biso 1.000000     C
    C   1.0     0.661436     0.247938     0.000000  Biso 1.000000     C
    C   1.0     0.399401     0.396967     0.905701  Biso 1.000000     C
    C   1.0     0.899432     0.396684     0.905506  Biso 1.000000     C
    C   1.0     0.370031     0.463603     0.838350  Biso 1.000000     C
    C   1.0     0.870054     0.463384     0.838190  Biso 1.000000     C
    C   1.0     0.384225     0.594738     0.731128  Biso 1.000000     C
    C   1.0     0.884201     0.594694     0.731148  Biso 1.000000     C
    C   1.0     0.412664     0.528765     0.790835  Biso 1.000000     C
    C   1.0     0.912646     0.528658     0.790803  Biso 1.000000     C
    C   1.0     0.352665     0.114255     0.259514  Biso 1.000000     C
    C   1.0     0.852618     0.114024     0.259350  Biso 1.000000     C
    C   1.0     0.228421     0.194500     0.000000  Biso 1.000000     C
    C   1.0     0.728319     0.194452     0.000000  Biso 1.000000     C
    C   1.0     0.297641     0.534592     0.027652  Biso 1.000000     C
    C   1.0     0.797575     0.534395     0.026906  Biso 1.000000     C
    C   1.0     0.128926     0.252578     0.933662  Biso 1.000000     C
    C   1.0     0.628800     0.252626     0.933671  Biso 1.000000     C
    C   1.0     0.260298     0.144939     0.951794  Biso 1.000000     C
    C   1.0     0.760120     0.144852     0.951750  Biso 1.000000     C
    C   1.0     0.379386     0.182851     0.189585  Biso 1.000000     C
    C   1.0     0.879420     0.182536     0.189409  Biso 1.000000     C
    C   1.0     0.033533     0.523565     0.026022  Biso 1.000000     C
    C   1.0     0.533504     0.523881     0.026133  Biso 1.000000     C
    C   1.0     0.472235     0.081732     0.881743  Biso 1.000000     C
    C   1.0     0.972140     0.081418     0.881488  Biso 1.000000     C
    C   1.0     0.458316     0.159523     0.915086  Biso 1.000000     C
    C   1.0     0.958295     0.159227     0.914804  Biso 1.000000     C
    C   1.0     0.226431     0.148259     0.882411  Biso 1.000000     C
    C   1.0     0.726208     0.148211     0.882392  Biso 1.000000     C
    C   1.0     0.160772     0.203161     0.872934  Biso 1.000000     C
    C   1.0     0.660565     0.203159     0.872950  Biso 1.000000     C
    C   1.0     0.291194     0.622245     0.972474  Biso 1.000000     C
    C   1.0     0.791083     0.622051     0.971795  Biso 1.000000     C
    C   1.0     0.350940     0.256595     0.407969  Biso 1.000000     C
    C   1.0     0.850643     0.256453     0.407801  Biso 1.000000     C
    C   1.0     0.181947     0.453083     0.286218  Biso 1.000000     C
    C   1.0     0.682187     0.452822     0.286182  Biso 1.000000     C
    C   1.0     0.028061     0.752289     0.597771  Biso 1.000000     C
    C   1.0     0.527984     0.752777     0.597960  Biso 1.000000     C
    C   1.0     0.277757     0.102817     0.278808  Biso 1.000000     C
    C   1.0     0.777714     0.102582     0.278604  Biso 1.000000     C
    C   1.0     0.253522     0.035358     0.341453  Biso 1.000000     C
    C   1.0     0.753478     0.035140     0.341270  Biso 1.000000     C
    C   1.0     0.250372     0.622281     0.429007  Biso 1.000000     C
    C   1.0     0.750593     0.622098     0.428919  Biso 1.000000     C
    C   1.0     0.279208     0.504794     0.347810  Biso 1.000000     C
    C   1.0     0.779499     0.504498     0.347828  Biso 1.000000     C
    C   1.0     0.205241     0.510481     0.337469  Biso 1.000000     C
    C   1.0     0.705547     0.510188     0.337416  Biso 1.000000     C
    C   1.0     0.309183     0.211024     0.476066  Biso 1.000000     C
    C   1.0     0.808882     0.210945     0.475935  Biso 1.000000     C
    C   1.0     0.461277     0.188973     0.462511  Biso 1.000000     C
    C   1.0     0.960975     0.188774     0.462330  Biso 1.000000     C
    C   1.0     0.060306     0.601697     0.120443  Biso 1.000000     C
    C   1.0     0.560660     0.601856     0.120462  Biso 1.000000     C
    C   1.0     0.014483     0.905442     0.567139  Biso 1.000000     C
    C   1.0     0.514674     0.905934     0.567327  Biso 1.000000     C
    C   1.0     0.510368     0.090299     0.030893  Biso 1.000000     C
    C   1.0     0.000000     0.090023     0.030522  Biso 1.000000     C
    C   1.0     0.328957     0.769491     0.912320  Biso 1.000000     C
    C   1.0     0.828829     0.769366     0.912036  Biso 1.000000     C
    C   1.0     0.340826     0.685946     0.961896  Biso 1.000000     C
    C   1.0     0.840720     0.685712     0.961404  Biso 1.000000     C
    C   1.0     0.229810     0.642993     0.931015  Biso 1.000000     C
    C   1.0     0.729679     0.642907     0.930389  Biso 1.000000     C
    C   1.0     0.218110     0.725333     0.881112  Biso 1.000000     C
    C   1.0     0.717973     0.725353     0.880663  Biso 1.000000     C
    C   1.0     0.154674     0.572692     0.373730  Biso 1.000000     C
    C   1.0     0.654967     0.572455     0.373583  Biso 1.000000     C
    C   1.0     0.297693     0.464676     0.824133  Biso 1.000000     C
    C   1.0     0.797746     0.464422     0.823891  Biso 1.000000     C
    C   1.0     0.176377     0.628370     0.419710  Biso 1.000000     C
    C   1.0     0.676622     0.628178     0.419542  Biso 1.000000     C
    N   1.0     0.029933     0.759699     0.847326  Biso 1.000000     N
    N   1.0     0.529961     0.760068     0.847512  Biso 1.000000     N
    N   1.0     0.012727     0.918952     0.817306  Biso 1.000000     N
    N   1.0     0.512812     0.919320     0.817556  Biso 1.000000     N
    N   1.0     0.026892     0.843461     0.953464  Biso 1.000000     N
    N   1.0     0.527032     0.843759     0.953680  Biso 1.000000     N
    N   1.0     0.048859     0.523505     0.101815  Biso 1.000000     N
    N   1.0     0.549037     0.523724     0.101857  Biso 1.000000     N
    N   1.0     0.020821     0.826987     0.540788  Biso 1.000000     N
    N   1.0     0.520896     0.827495     0.540969  Biso 1.000000     N
    N   1.0     0.476771     0.163827     0.988395  Biso 1.000000     N
    N   1.0     0.976831     0.163533     0.988074  Biso 1.000000     N
    O   1.0     0.262364     0.897753     0.638735  Biso 1.000000     O
    O   1.0     0.762275     0.897625     0.638733  Biso 1.000000     O
    O   1.0     0.374519     0.424725     0.103101  Biso 1.000000     O
    O   1.0     0.874647     0.424691     0.102141  Biso 1.000000     O
    O   1.0     0.247047     0.870894     0.826518  Biso 1.000000     O
    O   1.0     0.746908     0.870982     0.826471  Biso 1.000000     O
    O   1.0     0.297513     0.114395     0.604818  Biso 1.000000     O
    O   1.0     0.797234     0.114411     0.604741  Biso 1.000000     O
    O   1.0     0.278049     0.659388     0.663271  Biso 1.000000     O
    O   1.0     0.778049     0.659358     0.663255  Biso 1.000000     O
    O   1.0     0.278165     0.674398     0.471572  Biso 1.000000     O
    O   1.0     0.778306     0.674290     0.471481  Biso 1.000000     O
    O   1.0     0.274555     0.911234     0.443911  Biso 1.000000     O
    O   1.0     0.774518     0.911118     0.443835  Biso 1.000000     O
    O   1.0     0.261985     0.096373     0.826716  Biso 1.000000     O
    O   1.0     0.761734     0.096333     0.826678  Biso 1.000000     O
    O   1.0     0.042165     0.270997     0.316070  Biso 1.000000     O
    O   1.0     0.542433     0.271268     0.316163  Biso 1.000000     O
    O   1.0     0.443732     0.362359     0.281671  Biso 1.000000     O
    O   1.0     0.943587     0.362290     0.281585  Biso 1.000000     O
    O   1.0     0.446517     0.194750     0.173550  Biso 1.000000     O
    O   1.0     0.946615     0.194086     0.173308  Biso 1.000000     O
    O   1.0     0.465793     0.396545     0.916898  Biso 1.000000     O
    O   1.0     0.965792     0.396357     0.916769  Biso 1.000000     O
    O   1.0     0.356308     0.343568     0.951843  Biso 1.000000     O
    O   1.0     0.856373     0.343180     0.951561  Biso 1.000000     O
    O   1.0     0.160702     0.311060     0.125304  Biso 1.000000     O
    O   1.0     0.660862     0.311047     0.125231  Biso 1.000000     O
    O   1.0     0.243588     0.492495     0.054865  Biso 1.000000     O
    O   1.0     0.743483     0.492519     0.054680  Biso 1.000000     O
    O   1.0     0.365855     0.507215     0.044096  Biso 1.000000     O
    O   1.0     0.865953     0.506768     0.042614  Biso 1.000000     O
    O   1.0     0.118747     0.473286     0.264028  Biso 1.000000     O
    O   1.0     0.618989     0.473162     0.264003  Biso 1.000000     O
    O   1.0     0.056500     0.322913     0.076427  Biso 1.000000     O
    O   1.0     0.556587     0.323192     0.076433  Biso 1.000000     O
    O   1.0     0.332888     0.226883     0.142378  Biso 1.000000     O
    O   1.0     0.832967     0.226821     0.142264  Biso 1.000000     O
    O   1.0     0.228035     0.387615     0.267498  Biso 1.000000     O
    O   1.0     0.728181     0.387271     0.267447  Biso 1.000000     O
   Cd   1.0     0.441809     0.297266     0.047842  Biso 1.000000    Cd
   Cd   1.0     0.941862     0.296861     0.047599  Biso 1.000000    Cd
   Cd   1.0     0.267014     0.360290     0.142658  Biso 1.000000    Cd
   Cd   1.0     0.767177     0.360321     0.142478  Biso 1.000000    Cd
   Cd   1.0     0.057896     0.388652     0.203466  Biso 1.000000    Cd
   Cd   1.0     0.558008     0.388760     0.203414  Biso 1.000000    Cd
