#======================================================================

# CRYSTAL DATA

#----------------------------------------------------------------------

data_VESTA_phase_1


_pd_phase_name                         MOF
_cell_length_a                         21.92300
_cell_length_b                         20.06600
_cell_length_c                         12.75800
_cell_angle_alpha                      90.03500
_cell_angle_beta                       89.87400
_cell_angle_gamma                      89.95300
_symmetry_space_group_name_H-M         "P 1"
_symmetry_Int_Tables_number            1

loop_
_symmetry_equiv_pos_as_xyz
   "x, y, z"

loop_
   _atom_site_label
   _atom_site_occupancy
   _atom_site_fract_x
   _atom_site_fract_y
   _atom_site_fract_z
   _atom_site_adp_type
   _atom_site_B_iso_or_equiv
   _atom_site_type_symbol
    H   1.0     0.094076     0.301380     0.663809  Biso 1.000000     H
    H   1.0     0.594258     0.301411     0.663713  Biso 1.000000     H
    H   1.0     0.117481     0.236465     0.476230  Biso 1.000000     H
    H   1.0     0.617659     0.236521     0.476110  Biso 1.000000     H
    H   1.0     0.069900     0.460758     0.338076  Biso 1.000000     H
    H   1.0     0.570015     0.460855     0.338128  Biso 1.000000     H
    H   1.0     0.147936     0.472213     0.371729  Biso 1.000000     H
    H   1.0     0.648089     0.472264     0.371578  Biso 1.000000     H
    H   1.0     0.089616     0.501312     0.457441  Biso 1.000000     H
    H   1.0     0.589858     0.501377     0.457458  Biso 1.000000     H
    H   1.0     0.505398     0.627235     0.980521  Biso 1.000000     H
    H   1.0     0.000000     0.627218     0.980612  Biso 1.000000     H
    H   1.0     0.034010     0.498036     0.919479  Biso 1.000000     H
    H   1.0     0.534087     0.498057     0.919420  Biso 1.000000     H
    H   1.0     0.033853     0.682871     0.616919  Biso 1.000000     H
    H   1.0     0.533832     0.682854     0.616797  Biso 1.000000     H
    H   1.0     0.028074     0.600062     0.569480  Biso 1.000000     H
    H   1.0     0.528044     0.600038     0.569395  Biso 1.000000     H
    H   1.0     0.100208     0.631382     0.609844  Biso 1.000000     H
    H   1.0     0.600188     0.631369     0.609687  Biso 1.000000     H
    H   1.0     0.405031     0.198343     0.663981  Biso 1.000000     H
    H   1.0     0.905016     0.198309     0.664060  Biso 1.000000     H
    H   1.0     0.381531     0.263225     0.476675  Biso 1.000000     H
    H   1.0     0.881620     0.263221     0.476743  Biso 1.000000     H
    H   1.0     0.429966     0.039080     0.337845  Biso 1.000000     H
    H   1.0     0.930018     0.039144     0.337778  Biso 1.000000     H
    H   1.0     0.351898     0.027427     0.371640  Biso 1.000000     H
    H   1.0     0.851989     0.027379     0.371742  Biso 1.000000     H
    H   1.0     0.410124    -0.001537     0.457161  Biso 1.000000     H
    H   1.0     0.910314    -0.001526     0.457115  Biso 1.000000     H
    H   1.0    -0.005357     0.873515     0.980451  Biso 1.000000     H
    H   1.0     0.494582     0.873496     0.980386  Biso 1.000000     H
    H   1.0     0.465603     0.002450     0.919123  Biso 1.000000     H
    H   1.0     0.965765     0.002482     0.919131  Biso 1.000000     H
    H   1.0     0.467180     0.817341     0.616686  Biso 1.000000     H
    H   1.0     0.967152     0.817317     0.616795  Biso 1.000000     H
    H   1.0     0.472205     0.900186     0.569267  Biso 1.000000     H
    H   1.0     0.972115     0.900158     0.569342  Biso 1.000000     H
    H   1.0     0.400359     0.868089     0.610076  Biso 1.000000     H
    H   1.0     0.900304     0.868031     0.610278  Biso 1.000000     H
    H   1.0     0.343841     0.198442     0.836481  Biso 1.000000     H
    H   1.0     0.843877     0.198540     0.836550  Biso 1.000000     H
    H   1.0     0.367437     0.263254     0.023853  Biso 1.000000     H
    H   1.0     0.867516     0.263334     0.023923  Biso 1.000000     H
    H   1.0     0.319810     0.038832     0.161859  Biso 1.000000     H
    H   1.0     0.819956     0.038843     0.161809  Biso 1.000000     H
    H   1.0     0.398018     0.027625     0.128443  Biso 1.000000     H
    H   1.0     0.898195     0.027743     0.128510  Biso 1.000000     H
    H   1.0     0.340123    -0.001620     0.042520  Biso 1.000000     H
    H   1.0     0.840378    -0.001565     0.042486  Biso 1.000000     H
    H   1.0     0.255455     0.873097     0.519690  Biso 1.000000     H
    H   1.0     0.755613     0.873178     0.519739  Biso 1.000000     H
    H   1.0     0.284004     0.002161     0.580955  Biso 1.000000     H
    H   1.0     0.784144     0.002242     0.581034  Biso 1.000000     H
    H   1.0     0.283693     0.817102     0.883129  Biso 1.000000     H
    H   1.0     0.783658     0.817215     0.883252  Biso 1.000000     H
    H   1.0     0.278100     0.899905     0.930732  Biso 1.000000     H
    H   1.0     0.778158     0.900039     0.930793  Biso 1.000000     H
    H   1.0     0.350158     0.868289     0.889759  Biso 1.000000     H
    H   1.0     0.850186     0.868307     0.889891  Biso 1.000000     H
    H   1.0     0.155153     0.301773     0.835672  Biso 1.000000     H
    H   1.0     0.655200     0.301873     0.835560  Biso 1.000000     H
    H   1.0     0.131810     0.236724     0.023005  Biso 1.000000     H
    H   1.0     0.631857     0.236805     0.022879  Biso 1.000000     H
    H   1.0     0.179785     0.460630     0.162218  Biso 1.000000     H
    H   1.0     0.679951     0.460600     0.162276  Biso 1.000000     H
    H   1.0     0.101808     0.472551     0.128474  Biso 1.000000     H
    H   1.0     0.602029     0.472700     0.128328  Biso 1.000000     H
    H   1.0     0.160272     0.501431     0.043009  Biso 1.000000     H
    H   1.0     0.660625     0.501468     0.043035  Biso 1.000000     H
    H   1.0     0.244665     0.626874     0.519416  Biso 1.000000     H
    H   1.0     0.744742     0.626994     0.519360  Biso 1.000000     H
    H   1.0     0.215648     0.497879     0.580497  Biso 1.000000     H
    H   1.0     0.715757     0.497984     0.580405  Biso 1.000000     H
    H   1.0     0.217301     0.682534     0.883614  Biso 1.000000     H
    H   1.0     0.717299     0.682636     0.883533  Biso 1.000000     H
    H   1.0     0.221860     0.599554     0.930612  Biso 1.000000     H
    H   1.0     0.721975     0.599671     0.930554  Biso 1.000000     H
    H   1.0     0.150232     0.632249     0.890150  Biso 1.000000     H
    H   1.0     0.650297     0.632248     0.890110  Biso 1.000000     H
    H   1.0     0.405745     0.698646     0.336263  Biso 1.000000     H
    H   1.0     0.905917     0.698683     0.336169  Biso 1.000000     H
    H   1.0     0.382337     0.763538     0.523862  Biso 1.000000     H
    H   1.0     0.882517     0.763596     0.523752  Biso 1.000000     H
    H   1.0     0.429985     0.539209     0.661858  Biso 1.000000     H
    H   1.0     0.930094     0.539304     0.661904  Biso 1.000000     H
    H   1.0     0.351914     0.527794     0.628397  Biso 1.000000     H
    H   1.0     0.852060     0.527845     0.628241  Biso 1.000000     H
    H   1.0     0.410151     0.498684     0.542526  Biso 1.000000     H
    H   1.0     0.910385     0.498749     0.542535  Biso 1.000000     H
    H   1.0    -0.005376     0.372850     0.019357  Biso 1.000000     H
    H   1.0     0.494605     0.372827     0.019456  Biso 1.000000     H
    H   1.0     0.465914     0.502005     0.080558  Biso 1.000000     H
    H   1.0     0.965988     0.502032     0.080494  Biso 1.000000     H
    H   1.0     0.466168     0.317207     0.383179  Biso 1.000000     H
    H   1.0     0.966141     0.317192     0.383048  Biso 1.000000     H
    H   1.0     0.471957     0.400023     0.430582  Biso 1.000000     H
    H   1.0     0.971927     0.400000     0.430489  Biso 1.000000     H
    H   1.0     0.399812     0.368693     0.390288  Biso 1.000000     H
    H   1.0     0.899790     0.368686     0.390129  Biso 1.000000     H
    H   1.0     0.094971     0.801754     0.335910  Biso 1.000000     H
    H   1.0     0.594974     0.801715     0.335991  Biso 1.000000     H
    H   1.0     0.118370     0.736843     0.523226  Biso 1.000000     H
    H   1.0     0.618467     0.736832     0.523299  Biso 1.000000     H
    H   1.0     0.069978     0.960924     0.662186  Biso 1.000000     H
    H   1.0     0.570041     0.960980     0.662127  Biso 1.000000     H
    H   1.0     0.148009     0.972681     0.628230  Biso 1.000000     H
    H   1.0     0.648109     0.972631     0.628330  Biso 1.000000     H
    H   1.0     0.089689     0.000000     0.542850  Biso 1.000000     H
    H   1.0     0.589883     0.000000     0.542810  Biso 1.000000     H
    H   1.0     0.505426     0.126570     0.019589  Biso 1.000000     H
    H   1.0     0.000000     0.126553     0.019516  Biso 1.000000     H
    H   1.0     0.034240     0.997587     0.080832  Biso 1.000000     H
    H   1.0     0.534404     0.997614     0.080847  Biso 1.000000     H
    H   1.0     0.032842     0.182747     0.383175  Biso 1.000000     H
    H   1.0     0.532819     0.182717     0.383293  Biso 1.000000     H
    H   1.0     0.027887     0.099905     0.430624  Biso 1.000000     H
    H   1.0     0.527800     0.099870     0.430707  Biso 1.000000     H
    H   1.0     0.099695     0.132040     0.389688  Biso 1.000000     H
    H   1.0     0.599644     0.131975     0.389899  Biso 1.000000     H
    H   1.0     0.156117     0.801523     0.163420  Biso 1.000000     H
    H   1.0     0.656159     0.801620     0.163494  Biso 1.000000     H
    H   1.0     0.132478     0.736730     0.976046  Biso 1.000000     H
    H   1.0     0.632562     0.736806     0.976123  Biso 1.000000     H
    H   1.0     0.180048     0.961219     0.838161  Biso 1.000000     H
    H   1.0     0.680193     0.961223     0.838106  Biso 1.000000     H
    H   1.0     0.101809     0.972322     0.871457  Biso 1.000000     H
    H   1.0     0.601988     0.972439     0.871534  Biso 1.000000     H
    H   1.0     0.159626     0.000000     0.957483  Biso 1.000000     H
    H   1.0     0.659890     0.000000     0.957447  Biso 1.000000     H
    H   1.0     0.244383     0.126885     0.480236  Biso 1.000000     H
    H   1.0     0.744548     0.126965     0.480283  Biso 1.000000     H
    H   1.0     0.215858     0.997819     0.418938  Biso 1.000000     H
    H   1.0     0.716000     0.997899     0.419018  Biso 1.000000     H
    H   1.0     0.216341     0.182847     0.116722  Biso 1.000000     H
    H   1.0     0.716311     0.182958     0.116844  Biso 1.000000     H
    H   1.0     0.221846     0.100024     0.069179  Biso 1.000000     H
    H   1.0     0.721903     0.100155     0.069241  Biso 1.000000     H
    H   1.0     0.149816     0.131750     0.110079  Biso 1.000000     H
    H   1.0     0.649845     0.131772     0.110215  Biso 1.000000     H
    H   1.0     0.344803     0.698189     0.164416  Biso 1.000000     H
    H   1.0     0.844844     0.698290     0.164306  Biso 1.000000     H
    H   1.0     0.368142     0.763257     0.977096  Biso 1.000000     H
    H   1.0     0.868190     0.763339     0.976974  Biso 1.000000     H
    H   1.0     0.320050     0.539465     0.837694  Biso 1.000000     H
    H   1.0     0.820216     0.539432     0.837759  Biso 1.000000     H
    H   1.0     0.397970     0.527359     0.871652  Biso 1.000000     H
    H   1.0     0.898194     0.527513     0.871504  Biso 1.000000     H
    H   1.0     0.339368     0.498595     0.956938  Biso 1.000000     H
    H   1.0     0.839729     0.498632     0.956969  Biso 1.000000     H
    H   1.0     0.255260     0.373067     0.480616  Biso 1.000000     H
    H   1.0     0.755326     0.373189     0.480558  Biso 1.000000     H
    H   1.0     0.284245     0.502078     0.419571  Biso 1.000000     H
    H   1.0     0.784348     0.502182     0.419479  Biso 1.000000     H
    H   1.0     0.282698     0.317427     0.116441  Biso 1.000000     H
    H   1.0     0.782696     0.317529     0.116360  Biso 1.000000     H
    H   1.0     0.278025     0.400393     0.069422  Biso 1.000000     H
    H   1.0     0.778142     0.400510     0.069364  Biso 1.000000     H
    H   1.0     0.349703     0.367813     0.109866  Biso 1.000000     H
    H   1.0     0.849767     0.367810     0.109829  Biso 1.000000     H
    C   1.0     0.102636     0.395932     0.459871  Biso 1.000000     C
    C   1.0     0.602833     0.395993     0.459809  Biso 1.000000     C
    C   1.0     0.099433     0.321201     0.585329  Biso 1.000000     C
    C   1.0     0.599625     0.321244     0.585242  Biso 1.000000     C
    C   1.0     0.110637     0.288958     0.492159  Biso 1.000000     C
    C   1.0     0.610828     0.289013     0.492062  Biso 1.000000     C
    C   1.0     0.102402     0.460916     0.403590  Biso 1.000000     C
    C   1.0     0.602579     0.460985     0.403553  Biso 1.000000     C
    C   1.0     0.039186     0.608523     0.736009  Biso 1.000000     C
    C   1.0     0.539185     0.608520     0.735904  Biso 1.000000     C
    C   1.0     0.018844     0.607765     0.904720  Biso 1.000000     C
    C   1.0     0.518883     0.607777     0.904627  Biso 1.000000     C
    C   1.0     0.032194     0.543660     0.874146  Biso 1.000000     C
    C   1.0     0.532249     0.543674     0.874069  Biso 1.000000     C
    C   1.0     0.050997     0.631940     0.627309  Biso 1.000000     C
    C   1.0     0.550983     0.631926     0.627193  Biso 1.000000     C
    C   1.0     0.396871     0.103812     0.459861  Biso 1.000000     C
    C   1.0     0.896956     0.103807     0.459894  Biso 1.000000     C
    C   1.0     0.399786     0.178532     0.585474  Biso 1.000000     C
    C   1.0     0.899796     0.178508     0.585542  Biso 1.000000     C
    C   1.0     0.388535     0.210754     0.492448  Biso 1.000000     C
    C   1.0     0.888601     0.210745     0.492509  Biso 1.000000     C
    C   1.0     0.397347     0.038836     0.403434  Biso 1.000000     C
    C   1.0     0.897450     0.038842     0.403440  Biso 1.000000     C
    C   1.0     0.461099     0.891704     0.735862  Biso 1.000000     C
    C   1.0     0.961123     0.891694     0.735946  Biso 1.000000     C
    C   1.0     0.481157     0.892784     0.904494  Biso 1.000000     C
    C   1.0     0.981229     0.892796     0.904561  Biso 1.000000     C
    C   1.0     0.467632     0.956792     0.873858  Biso 1.000000     C
    C   1.0     0.967744     0.956809     0.873898  Biso 1.000000     C
    C   1.0     0.449564     0.868087     0.627230  Biso 1.000000     C
    C   1.0     0.949518     0.868055     0.627351  Biso 1.000000     C
    C   1.0     0.352734     0.103790     0.040212  Biso 1.000000     C
    C   1.0     0.852879     0.103860     0.040237  Biso 1.000000     C
    C   1.0     0.349307     0.178584     0.914881  Biso 1.000000     C
    C   1.0     0.849379     0.178673     0.914937  Biso 1.000000     C
    C   1.0     0.360597     0.210778     0.007948  Biso 1.000000     C
    C   1.0     0.860695     0.210856     0.008003  Biso 1.000000     C
    C   1.0     0.352555     0.038791     0.096451  Biso 1.000000     C
    C   1.0     0.852738     0.038853     0.096454  Biso 1.000000     C
    C   1.0     0.289152     0.891507     0.764114  Biso 1.000000     C
    C   1.0     0.789224     0.891587     0.764200  Biso 1.000000     C
    C   1.0     0.268901     0.892456     0.595547  Biso 1.000000     C
    C   1.0     0.769025     0.892539     0.595613  Biso 1.000000     C
    C   1.0     0.282216     0.956515     0.626183  Biso 1.000000     C
    C   1.0     0.782332     0.956596     0.626262  Biso 1.000000     C
    C   1.0     0.300947     0.867964     0.872670  Biso 1.000000     C
    C   1.0     0.800979     0.868048     0.872769  Biso 1.000000     C
    C   1.0     0.146931     0.396125     0.040061  Biso 1.000000     C
    C   1.0     0.647088     0.396191     0.039997  Biso 1.000000     C
    C   1.0     0.149897     0.321517     0.914266  Biso 1.000000     C
    C   1.0     0.649979     0.321604     0.914167  Biso 1.000000     C
    C   1.0     0.138716     0.289212     0.007303  Biso 1.000000     C
    C   1.0     0.638791     0.289292     0.007194  Biso 1.000000     C
    C   1.0     0.147327     0.461043     0.096645  Biso 1.000000     C
    C   1.0     0.647556     0.461097     0.096614  Biso 1.000000     C
    C   1.0     0.211064     0.608436     0.764109  Biso 1.000000     C
    C   1.0     0.711153     0.608518     0.764050  Biso 1.000000     C
    C   1.0     0.231212     0.607519     0.595340  Biso 1.000000     C
    C   1.0     0.731285     0.607629     0.595276  Biso 1.000000     C
    C   1.0     0.217663     0.543502     0.625886  Biso 1.000000     C
    C   1.0     0.717756     0.543604     0.625804  Biso 1.000000     C
    C   1.0     0.199467     0.631939     0.872877  Biso 1.000000     C
    C   1.0     0.699530     0.632012     0.872816  Biso 1.000000     C
    C   1.0     0.397170     0.604067     0.540170  Biso 1.000000     C
    C   1.0     0.897360     0.604129     0.540106  Biso 1.000000     C
    C   1.0     0.400377     0.678814     0.414734  Biso 1.000000     C
    C   1.0     0.900561     0.678861     0.414649  Biso 1.000000     C
    C   1.0     0.389171     0.711045     0.507912  Biso 1.000000     C
    C   1.0     0.889360     0.711103     0.507821  Biso 1.000000     C
    C   1.0     0.397425     0.539076     0.596427  Biso 1.000000     C
    C   1.0     0.897595     0.539145     0.596386  Biso 1.000000     C
    C   1.0     0.460816     0.391541     0.264073  Biso 1.000000     C
    C   1.0     0.960811     0.391542     0.263961  Biso 1.000000     C
    C   1.0     0.481119     0.392285     0.095350  Biso 1.000000     C
    C   1.0     0.981154     0.392303     0.095250  Biso 1.000000     C
    C   1.0     0.467753     0.456388     0.125908  Biso 1.000000     C
    C   1.0     0.967804     0.456407     0.125826  Biso 1.000000     C
    C   1.0     0.449018     0.368135     0.372783  Biso 1.000000     C
    C   1.0     0.949000     0.368125     0.372660  Biso 1.000000     C
    C   1.0     0.103039     0.896257     0.540073  Biso 1.000000     C
    C   1.0     0.603134     0.896247     0.540111  Biso 1.000000     C
    C   1.0     0.100194     0.821555     0.414427  Biso 1.000000     C
    C   1.0     0.600219     0.821526     0.414498  Biso 1.000000     C
    C   1.0     0.111390     0.789319     0.507460  Biso 1.000000     C
    C   1.0     0.611466     0.789304     0.507526  Biso 1.000000     C
    C   1.0     0.102548     0.961223     0.596528  Biso 1.000000     C
    C   1.0     0.602660     0.961222     0.596537  Biso 1.000000     C
    C   1.0     0.038876     0.108373     0.264021  Biso 1.000000     C
    C   1.0     0.538906     0.108357     0.264113  Biso 1.000000     C
    C   1.0     0.018771     0.107272     0.095406  Biso 1.000000     C
    C   1.0     0.518850     0.107281     0.095480  Biso 1.000000     C
    C   1.0     0.032259     0.043260     0.126067  Biso 1.000000     C
    C   1.0     0.532375     0.043272     0.126113  Biso 1.000000     C
    C   1.0     0.050481     0.132012     0.372617  Biso 1.000000     C
    C   1.0     0.550439     0.131973     0.372746  Biso 1.000000     C
    C   1.0     0.147122     0.896203     0.959732  Biso 1.000000     C
    C   1.0     0.647270     0.896271     0.959759  Biso 1.000000     C
    C   1.0     0.150616     0.821391     0.085033  Biso 1.000000     C
    C   1.0     0.650695     0.821478     0.085092  Biso 1.000000     C
    C   1.0     0.139301     0.789207     0.991966  Biso 1.000000     C
    C   1.0     0.639404     0.789283     0.992027  Biso 1.000000     C
    C   1.0     0.147265     0.961210     0.903515  Biso 1.000000     C
    C   1.0     0.647452     0.961269     0.903519  Biso 1.000000     C
    C   1.0     0.210779     0.108474     0.235772  Biso 1.000000     C
    C   1.0     0.710850     0.108554     0.235859  Biso 1.000000     C
    C   1.0     0.230973     0.107523     0.404361  Biso 1.000000     C
    C   1.0     0.731102     0.107605     0.404426  Biso 1.000000     C
    C   1.0     0.217670     0.043465     0.373710  Biso 1.000000     C
    C   1.0     0.717788     0.043546     0.373790  Biso 1.000000     C
    C   1.0     0.199023     0.132013     0.127203  Biso 1.000000     C
    C   1.0     0.699056     0.132097     0.127303  Biso 1.000000     C
    C   1.0     0.352911     0.603871     0.959978  Biso 1.000000     C
    C   1.0     0.853069     0.603938     0.959917  Biso 1.000000     C
    C   1.0     0.350022     0.678457     0.085809  Biso 1.000000     C
    C   1.0     0.850101     0.678546     0.085713  Biso 1.000000     C
    C   1.0     0.361209     0.710770     0.992781  Biso 1.000000     C
    C   1.0     0.861284     0.710850     0.992676  Biso 1.000000     C
    C   1.0     0.352442     0.538965     0.903361  Biso 1.000000     C
    C   1.0     0.852674     0.539020     0.903333  Biso 1.000000     C
    C   1.0     0.288847     0.391544     0.235926  Biso 1.000000     C
    C   1.0     0.788936     0.391625     0.235868  Biso 1.000000     C
    C   1.0     0.268716     0.392433     0.404700  Biso 1.000000     C
    C   1.0     0.768783     0.392542     0.404635  Biso 1.000000     C
    C   1.0     0.282246     0.456458     0.374172  Biso 1.000000     C
    C   1.0     0.782334     0.456559     0.374090  Biso 1.000000     C
    C   1.0     0.300470     0.368050     0.127159  Biso 1.000000     C
    C   1.0     0.800532     0.368123     0.127100  Biso 1.000000     C
    N   1.0     0.112363     0.336197     0.413155  Biso 1.000000     N
    N   1.0     0.612567     0.336265     0.413076  Biso 1.000000     N
    N   1.0     0.094397     0.388842     0.564789  Biso 1.000000     N
    N   1.0     0.594596     0.388889     0.564725  Biso 1.000000     N
    N   1.0     0.044646     0.544338     0.767520  Biso 1.000000     N
    N   1.0     0.544685     0.544343     0.767437  Biso 1.000000     N
    N   1.0     0.023307     0.648568     0.817301  Biso 1.000000     N
    N   1.0     0.523325     0.648573     0.817195  Biso 1.000000     N
    N   1.0     0.386966     0.163520     0.413349  Biso 1.000000     N
    N   1.0     0.887082     0.163522     0.413389  Biso 1.000000     N
    N   1.0     0.405059     0.110918     0.564735  Biso 1.000000     N
    N   1.0     0.905072     0.110896     0.564789  Biso 1.000000     N
    N   1.0     0.455376     0.955915     0.767266  Biso 1.000000     N
    N   1.0     0.955452     0.955916     0.767317  Biso 1.000000     N
    N   1.0     0.477009     0.851838     0.817151  Biso 1.000000     N
    N   1.0     0.977019     0.851832     0.817249  Biso 1.000000     N
    N   1.0     0.362473     0.163500     0.086873  Biso 1.000000     N
    N   1.0     0.862611     0.163567     0.086908  Biso 1.000000     N
    N   1.0     0.344343     0.110939     0.935409  Biso 1.000000     N
    N   1.0     0.844445     0.111023     0.935447  Biso 1.000000     N
    N   1.0     0.294596     0.955719     0.732736  Biso 1.000000     N
    N   1.0     0.794685     0.955796     0.732826  Biso 1.000000     N
    N   1.0     0.273334     0.851555     0.682833  Biso 1.000000     N
    N   1.0     0.773438     0.851636     0.682900  Biso 1.000000     N
    N   1.0     0.137146     0.336374     0.086527  Biso 1.000000     N
    N   1.0     0.637269     0.336439     0.086440  Biso 1.000000     N
    N   1.0     0.155083     0.389113     0.935105  Biso 1.000000     N
    N   1.0     0.655218     0.389192     0.935035  Biso 1.000000     N
    N   1.0     0.205366     0.544272     0.732561  Biso 1.000000     N
    N   1.0     0.705463     0.544357     0.732478  Biso 1.000000     N
    N   1.0     0.227011     0.648365     0.682829  Biso 1.000000     N
    N   1.0     0.727077     0.648463     0.682777  Biso 1.000000     N
    N   1.0     0.387431     0.663795     0.586900  Biso 1.000000     N
    N   1.0     0.887635     0.663863     0.586824  Biso 1.000000     N
    N   1.0     0.405409     0.611170     0.435255  Biso 1.000000     N
    N   1.0     0.905597     0.611220     0.435187  Biso 1.000000     N
    N   1.0     0.455317     0.455718     0.232540  Biso 1.000000     N
    N   1.0     0.955351     0.455727     0.232451  Biso 1.000000     N
    N   1.0     0.476677     0.351489     0.182781  Biso 1.000000     N
    N   1.0     0.976690     0.351499     0.182668  Biso 1.000000     N
    N   1.0     0.112913     0.836542     0.586579  Biso 1.000000     N
    N   1.0     0.613035     0.836538     0.586624  Biso 1.000000     N
    N   1.0     0.094919     0.889168     0.435179  Biso 1.000000     N
    N   1.0     0.594948     0.889140     0.435236  Biso 1.000000     N
    N   1.0     0.044551     0.044152     0.232648  Biso 1.000000     N
    N   1.0     0.544628     0.044147     0.232707  Biso 1.000000     N
    N   1.0     0.022979     0.148235     0.182719  Biso 1.000000     N
    N   1.0     0.522997     0.148224     0.182825  Biso 1.000000     N
    N   1.0     0.137388     0.836497     0.913061  Biso 1.000000     N
    N   1.0     0.637529     0.836560     0.913101  Biso 1.000000     N
    N   1.0     0.155554     0.889040     0.064523  Biso 1.000000     N
    N   1.0     0.655661     0.889122     0.064563  Biso 1.000000     N
    N   1.0     0.205319     0.044264     0.267146  Biso 1.000000     N
    N   1.0     0.705408     0.044341     0.267237  Biso 1.000000     N
    N   1.0     0.226560     0.148426     0.317074  Biso 1.000000     N
    N   1.0     0.726668     0.148506     0.317141  Biso 1.000000     N
    N   1.0     0.362729     0.663623     0.913534  Biso 1.000000     N
    N   1.0     0.862856     0.663689     0.913452  Biso 1.000000     N
    N   1.0     0.344783     0.610870     0.064940  Biso 1.000000     N
    N   1.0     0.844915     0.610950     0.064872  Biso 1.000000     N
    N   1.0     0.294538     0.455705     0.267498  Biso 1.000000     N
    N   1.0     0.794633     0.455789     0.267416  Biso 1.000000     N
    N   1.0     0.272924     0.351599     0.317199  Biso 1.000000     N
    N   1.0     0.772984     0.351696     0.317146  Biso 1.000000     N
   Ag   1.0     0.072723     0.464930     0.671387  Biso 1.000000    Ag
   Ag   1.0     0.572839     0.464953     0.671325  Biso 1.000000    Ag
   Ag   1.0     0.427004     0.035001     0.671147  Biso 1.000000    Ag
   Ag   1.0     0.927062     0.034990     0.671190  Biso 1.000000    Ag
   Ag   1.0     0.322640     0.034957     0.828882  Biso 1.000000    Ag
   Ag   1.0     0.822732     0.035038     0.828947  Biso 1.000000    Ag
   Ag   1.0     0.176988     0.465095     0.828666  Biso 1.000000    Ag
   Ag   1.0     0.677105     0.465175     0.828589  Biso 1.000000    Ag
   Ag   1.0     0.124764     0.324877     0.249814  Biso 1.000000    Ag
   Ag   1.0     0.624906     0.324944     0.249727  Biso 1.000000    Ag
   Ag   1.0     0.374737     0.174876     0.250112  Biso 1.000000    Ag
   Ag   1.0     0.874862     0.174915     0.250157  Biso 1.000000    Ag
   Ag   1.0     0.000191     0.750205     0.812070  Biso 1.000000    Ag
   Ag   1.0     0.500207     0.750211     0.811963  Biso 1.000000    Ag
   Ag   1.0     0.250201     0.749953     0.688055  Biso 1.000000    Ag
   Ag   1.0     0.750297     0.750038     0.688069  Biso 1.000000    Ag
   Ag   1.0     0.427164     0.535107     0.328654  Biso 1.000000    Ag
   Ag   1.0     0.927273     0.535134     0.328587  Biso 1.000000    Ag
   Ag   1.0     0.072936     0.965076     0.328776  Biso 1.000000    Ag
   Ag   1.0     0.573003     0.965058     0.328824  Biso 1.000000    Ag
   Ag   1.0     0.177270     0.965023     0.171024  Biso 1.000000    Ag
   Ag   1.0     0.677364     0.965104     0.171090  Biso 1.000000    Ag
   Ag   1.0     0.322897     0.534887     0.171387  Biso 1.000000    Ag
   Ag   1.0     0.823011     0.534967     0.171311  Biso 1.000000    Ag
   Ag   1.0     0.375091     0.675118     0.750248  Biso 1.000000    Ag
   Ag   1.0     0.875236     0.675185     0.750164  Biso 1.000000    Ag
   Ag   1.0     0.125136     0.825149     0.749811  Biso 1.000000    Ag
   Ag   1.0     0.625264     0.825183     0.749861  Biso 1.000000    Ag
   Ag   1.0     0.999806     0.249861     0.187899  Biso 1.000000    Ag
   Ag   1.0     0.499796     0.249851     0.188014  Biso 1.000000    Ag
   Ag   1.0     0.249702     0.250024     0.311905  Biso 1.000000    Ag
   Ag   1.0     0.749798     0.250108     0.311919  Biso 1.000000    Ag
