#======================================================================

# CRYSTAL DATA

#----------------------------------------------------------------------

data_VESTA_phase_1


_pd_phase_name                         MOF
_cell_length_a                         23.27600
_cell_length_b                         12.28400
_cell_length_c                         19.77300
_cell_angle_alpha                      89.87200
_cell_angle_beta                       90.07100
_cell_angle_gamma                      99.96900
_symmetry_space_group_name_H-M         "P 1"
_symmetry_Int_Tables_number            1

loop_
_symmetry_equiv_pos_as_xyz
   "x, y, z"

loop_
   _atom_site_label
   _atom_site_occupancy
   _atom_site_fract_x
   _atom_site_fract_y
   _atom_site_fract_z
   _atom_site_adp_type
   _atom_site_B_iso_or_equiv
   _atom_site_type_symbol
    H   1.0     0.330690     0.660167     0.212489  Biso 1.000000     H
    H   1.0     0.830691     0.660169     0.212489  Biso 1.000000     H
    H   1.0     0.356899     0.476721     0.279999  Biso 1.000000     H
    H   1.0     0.856900     0.476723     0.279999  Biso 1.000000     H
    H   1.0     0.367055     0.466146     0.009851  Biso 1.000000     H
    H   1.0     0.867055     0.466146     0.009851  Biso 1.000000     H
    H   1.0     0.399475     0.362688     0.051039  Biso 1.000000     H
    H   1.0     0.899474     0.362688     0.051039  Biso 1.000000     H
    H   1.0     0.322398     0.344203     0.040940  Biso 1.000000     H
    H   1.0     0.822398     0.344205     0.040940  Biso 1.000000     H
    H   1.0     0.395706     0.022452     0.279771  Biso 1.000000     H
    H   1.0     0.895705     0.022453     0.279771  Biso 1.000000     H
    H   1.0     0.421392     0.839310     0.212003  Biso 1.000000     H
    H   1.0     0.921392     0.839311     0.212004  Biso 1.000000     H
    H   1.0     0.351606     0.138042     0.051238  Biso 1.000000     H
    H   1.0     0.851606     0.138042     0.051238  Biso 1.000000     H
    H   1.0     0.428562     0.155824     0.040275  Biso 1.000000     H
    H   1.0     0.928561     0.155825     0.040275  Biso 1.000000     H
    H   1.0     0.383309     0.034306     0.009737  Biso 1.000000     H
    H   1.0     0.883309     0.034307     0.009737  Biso 1.000000     H
    H   1.0     0.222226     0.600365     0.498559  Biso 1.000000     H
    H   1.0     0.722227     0.600368     0.498558  Biso 1.000000     H
    H   1.0     0.249787     0.560446     0.632120  Biso 1.000000     H
    H   1.0     0.749788     0.560449     0.632120  Biso 1.000000     H
    H   1.0     0.215147     0.968654     0.593115  Biso 1.000000     H
    H   1.0     0.715147     0.968655     0.593116  Biso 1.000000     H
    H   1.0     0.203432     0.919462     0.677267  Biso 1.000000     H
    H   1.0     0.703431     0.919463     0.677268  Biso 1.000000     H
    H   1.0     0.144600     0.899888     0.618046  Biso 1.000000     H
    H   1.0     0.644600     0.899889     0.618045  Biso 1.000000     H
    H   1.0     0.277302     0.898951     0.001902  Biso 1.000000     H
    H   1.0     0.777302     0.898953     0.001902  Biso 1.000000     H
    H   1.0     0.248607     0.938038     0.868591  Biso 1.000000     H
    H   1.0     0.748608     0.938040     0.868590  Biso 1.000000     H
    H   1.0     0.294733     0.578858     0.823408  Biso 1.000000     H
    H   1.0     0.794733     0.578858     0.823408  Biso 1.000000     H
    H   1.0     0.284037     0.530316     0.907810  Biso 1.000000     H
    H   1.0     0.784037     0.530317     0.907811  Biso 1.000000     H
    H   1.0     0.354232     0.599177     0.881737  Biso 1.000000     H
    H   1.0     0.854232     0.599178     0.881737  Biso 1.000000     H
    H   1.0     0.419504     0.338307     0.712007  Biso 1.000000     H
    H   1.0     0.919504     0.338309     0.712008  Biso 1.000000     H
    H   1.0     0.393161     0.520897     0.779779  Biso 1.000000     H
    H   1.0     0.893160     0.520899     0.779780  Biso 1.000000     H
    H   1.0     0.383040     0.534430     0.509619  Biso 1.000000     H
    H   1.0     0.883041     0.534432     0.509619  Biso 1.000000     H
    H   1.0     0.350376     0.637135     0.550890  Biso 1.000000     H
    H   1.0     0.850376     0.637136     0.550890  Biso 1.000000     H
    H   1.0     0.427470     0.656253     0.540976  Biso 1.000000     H
    H   1.0     0.927470     0.656255     0.540977  Biso 1.000000     H
    H   1.0     0.354407     0.975268     0.780037  Biso 1.000000     H
    H   1.0     0.854408     0.975271     0.780037  Biso 1.000000     H
    H   1.0     0.328846     0.159221     0.712498  Biso 1.000000     H
    H   1.0     0.828847     0.159224     0.712498  Biso 1.000000     H
    H   1.0     0.398251     0.861738     0.551438  Biso 1.000000     H
    H   1.0     0.898251     0.861740     0.551439  Biso 1.000000     H
    H   1.0     0.321312     0.844600     0.540318  Biso 1.000000     H
    H   1.0     0.821312     0.844603     0.540318  Biso 1.000000     H
    H   1.0     0.366784     0.966209     0.510023  Biso 1.000000     H
    H   1.0     0.866784     0.966211     0.510023  Biso 1.000000     H
    H   1.0     0.027681     0.399237    -0.001854  Biso 1.000000     H
    H   1.0     0.527680     0.399236    -0.001854  Biso 1.000000     H
    H   1.0     0.000223     0.439388     0.131520  Biso 1.000000     H
    H   1.0     0.500221     0.439387     0.131519  Biso 1.000000     H
    H   1.0     0.034317     0.030884     0.094031  Biso 1.000000     H
    H   1.0     0.534316     0.030883     0.094032  Biso 1.000000     H
    H   1.0     0.046505     0.080365     0.177956  Biso 1.000000     H
    H   1.0     0.546504     0.080364     0.177956  Biso 1.000000     H
    H   1.0     0.105056     0.099359     0.118479  Biso 1.000000     H
    H   1.0     0.605055     0.099359     0.118479  Biso 1.000000     H
    H   1.0     0.472775     0.101410     0.502267  Biso 1.000000     H
    H   1.0     0.972774     0.101411     0.502267  Biso 1.000000     H
    H   1.0     0.001358     0.062162     0.369135  Biso 1.000000     H
    H   1.0     0.501356     0.062162     0.369135  Biso 1.000000     H
    H   1.0     0.455317     0.421382     0.322740  Biso 1.000000     H
    H   1.0     0.955315     0.421383     0.322741  Biso 1.000000     H
    H   1.0     0.466535     0.470192     0.406920  Biso 1.000000     H
    H   1.0     0.966534     0.470193     0.406920  Biso 1.000000     H
    H   1.0     0.396120     0.401662     0.381368  Biso 1.000000     H
    H   1.0     0.896119     0.401664     0.381369  Biso 1.000000     H
    H   1.0     0.169311     0.339805     0.787510  Biso 1.000000     H
    H   1.0     0.669312     0.339806     0.787509  Biso 1.000000     H
    H   1.0     0.143100     0.523251     0.720001  Biso 1.000000     H
    H   1.0     0.643102     0.523252     0.720000  Biso 1.000000     H
    H   1.0     0.132945     0.533824     0.990149  Biso 1.000000     H
    H   1.0     0.632945     0.533824     0.990148  Biso 1.000000     H
    H   1.0     0.100525     0.637282     0.948961  Biso 1.000000     H
    H   1.0     0.600525     0.637282     0.948961  Biso 1.000000     H
    H   1.0     0.177602     0.655766     0.959060  Biso 1.000000     H
    H   1.0     0.677601     0.655767     0.959060  Biso 1.000000     H
    H   1.0     0.104293     0.977519     0.720228  Biso 1.000000     H
    H   1.0     0.604292     0.977519     0.720228  Biso 1.000000     H
    H   1.0     0.078607     0.160661     0.787996  Biso 1.000000     H
    H   1.0     0.578606     0.160661     0.787996  Biso 1.000000     H
    H   1.0     0.148394     0.861930     0.948762  Biso 1.000000     H
    H   1.0     0.648393     0.861929     0.948761  Biso 1.000000     H
    H   1.0     0.071438     0.844146     0.959724  Biso 1.000000     H
    H   1.0     0.571438     0.844146     0.959724  Biso 1.000000     H
    H   1.0     0.116690     0.965664     0.990262  Biso 1.000000     H
    H   1.0     0.616690     0.965664     0.990262  Biso 1.000000     H
    H   1.0     0.277773     0.399601     0.501442  Biso 1.000000     H
    H   1.0     0.777773     0.399603     0.501441  Biso 1.000000     H
    H   1.0     0.250213     0.439522     0.367880  Biso 1.000000     H
    H   1.0     0.750214     0.439524     0.367880  Biso 1.000000     H
    H   1.0     0.284852     0.031314     0.406883  Biso 1.000000     H
    H   1.0     0.784852     0.031315     0.406884  Biso 1.000000     H
    H   1.0     0.296568     0.080507     0.322732  Biso 1.000000     H
    H   1.0     0.796567     0.080508     0.322732  Biso 1.000000     H
    H   1.0     0.355399     0.100080     0.381954  Biso 1.000000     H
    H   1.0     0.855399     0.100081     0.381954  Biso 1.000000     H
    H   1.0     0.222696     0.101018     0.998099  Biso 1.000000     H
    H   1.0     0.722697     0.101020     0.998098  Biso 1.000000     H
    H   1.0     0.251392     0.061933     0.131410  Biso 1.000000     H
    H   1.0     0.751392     0.061934     0.131410  Biso 1.000000     H
    H   1.0     0.205266     0.421114     0.176591  Biso 1.000000     H
    H   1.0     0.705266     0.421115     0.176591  Biso 1.000000     H
    H   1.0     0.215963     0.469655     0.092189  Biso 1.000000     H
    H   1.0     0.715963     0.469657     0.092189  Biso 1.000000     H
    H   1.0     0.145767     0.400795     0.118262  Biso 1.000000     H
    H   1.0     0.645768     0.400796     0.118262  Biso 1.000000     H
    H   1.0     0.080496     0.661659     0.287993  Biso 1.000000     H
    H   1.0     0.580496     0.661660     0.287994  Biso 1.000000     H
    H   1.0     0.106842     0.479070     0.220221  Biso 1.000000     H
    H   1.0     0.606841     0.479071     0.220221  Biso 1.000000     H
    H   1.0     0.116960     0.465536     0.490382  Biso 1.000000     H
    H   1.0     0.616960     0.465538     0.490382  Biso 1.000000     H
    H   1.0     0.149624     0.362832     0.449111  Biso 1.000000     H
    H   1.0     0.649624     0.362833     0.449110  Biso 1.000000     H
    H   1.0     0.072531     0.343713     0.459024  Biso 1.000000     H
    H   1.0     0.572531     0.343715     0.459024  Biso 1.000000     H
    H   1.0     0.145593     0.024699     0.219962  Biso 1.000000     H
    H   1.0     0.645594     0.024701     0.219962  Biso 1.000000     H
    H   1.0     0.171152     0.840744     0.287501  Biso 1.000000     H
    H   1.0     0.671153     0.840746     0.287501  Biso 1.000000     H
    H   1.0     0.101749     0.138227     0.448561  Biso 1.000000     H
    H   1.0     0.601749     0.138229     0.448561  Biso 1.000000     H
    H   1.0     0.178687     0.155364     0.459682  Biso 1.000000     H
    H   1.0     0.678687     0.155366     0.459682  Biso 1.000000     H
    H   1.0     0.133215     0.033756     0.489976  Biso 1.000000     H
    H   1.0     0.633215     0.033758     0.489976  Biso 1.000000     H
    H   1.0     0.472319     0.600733     0.000000  Biso 1.000000     H
    H   1.0     0.972318     0.600733     0.000000  Biso 1.000000     H
    H   1.0     0.499779     0.560582     0.868482  Biso 1.000000     H
    H   1.0     0.999777     0.560581     0.868482  Biso 1.000000     H
    H   1.0     0.465683     0.969085     0.905969  Biso 1.000000     H
    H   1.0     0.965681     0.969085     0.905969  Biso 1.000000     H
    H   1.0     0.453496     0.919605     0.822044  Biso 1.000000     H
    H   1.0     0.953495     0.919605     0.822044  Biso 1.000000     H
    H   1.0     0.394944     0.900609     0.881520  Biso 1.000000     H
    H   1.0     0.894943     0.900609     0.881520  Biso 1.000000     H
    H   1.0     0.027225     0.898558     0.497733  Biso 1.000000     H
    H   1.0     0.527224     0.898558     0.497733  Biso 1.000000     H
    H   1.0     0.498643     0.937807     0.630864  Biso 1.000000     H
    H   1.0     0.998642     0.937808     0.630865  Biso 1.000000     H
    H   1.0     0.044685     0.578587     0.677260  Biso 1.000000     H
    H   1.0     0.544683     0.578587     0.677260  Biso 1.000000     H
    H   1.0     0.033466     0.529777     0.593080  Biso 1.000000     H
    H   1.0     0.533465     0.529777     0.593080  Biso 1.000000     H
    H   1.0     0.103881     0.598307     0.618631  Biso 1.000000     H
    H   1.0     0.603879     0.598307     0.618632  Biso 1.000000     H
    C   1.0     0.357168     0.461789     0.117217  Biso 1.000000     C
    C   1.0     0.857168     0.461791     0.117217  Biso 1.000000     C
    C   1.0     0.340912     0.583432     0.192851  Biso 1.000000     C
    C   1.0     0.840913     0.583434     0.192850  Biso 1.000000     C
    C   1.0     0.354104     0.492632     0.226295  Biso 1.000000     C
    C   1.0     0.854105     0.492634     0.226295  Biso 1.000000     C
    C   1.0     0.361785     0.405586     0.051313  Biso 1.000000     C
    C   1.0     0.861785     0.405587     0.051313  Biso 1.000000     C
    C   1.0     0.394259     0.038250     0.116991  Biso 1.000000     C
    C   1.0     0.894259     0.038250     0.116991  Biso 1.000000     C
    C   1.0     0.398128     0.006834     0.226036  Biso 1.000000     C
    C   1.0     0.898127     0.006835     0.226037  Biso 1.000000     C
    C   1.0     0.411032     0.916164     0.192473  Biso 1.000000     C
    C   1.0     0.911032     0.916164     0.192474  Biso 1.000000     C
    C   1.0     0.389147     0.094747     0.051115  Biso 1.000000     C
    C   1.0     0.889147     0.094747     0.051115  Biso 1.000000     C
    C   1.0     0.207334     0.793004     0.604510  Biso 1.000000     C
    C   1.0     0.707334     0.793006     0.604511  Biso 1.000000     C
    C   1.0     0.220947     0.650593     0.543370  Biso 1.000000     C
    C   1.0     0.720948     0.650595     0.543370  Biso 1.000000     C
    C   1.0     0.234237     0.630475     0.609549  Biso 1.000000     C
    C   1.0     0.734237     0.630477     0.609548  Biso 1.000000     C
    C   1.0     0.191710     0.900968     0.624241  Biso 1.000000     C
    C   1.0     0.691710     0.900969     0.624241  Biso 1.000000     C
    C   1.0     0.291487     0.705828     0.896004  Biso 1.000000     C
    C   1.0     0.791487     0.705830     0.896004  Biso 1.000000     C
    C   1.0     0.278264     0.848498     0.957131  Biso 1.000000     C
    C   1.0     0.778265     0.848500     0.957131  Biso 1.000000     C
    C   1.0     0.264402     0.868198     0.891074  Biso 1.000000     C
    C   1.0     0.764403     0.868200     0.891074  Biso 1.000000     C
    C   1.0     0.307040     0.597831     0.876227  Biso 1.000000     C
    C   1.0     0.807040     0.597832     0.876227  Biso 1.000000     C
    C   1.0     0.392875     0.537651     0.617014  Biso 1.000000     C
    C   1.0     0.892875     0.537652     0.617014  Biso 1.000000     C
    C   1.0     0.409223     0.415228     0.692486  Biso 1.000000     C
    C   1.0     0.909223     0.415230     0.692487  Biso 1.000000     C
    C   1.0     0.395978     0.505612     0.726049  Biso 1.000000     C
    C   1.0     0.895977     0.505614     0.726050  Biso 1.000000     C
    C   1.0     0.388174     0.594524     0.551181  Biso 1.000000     C
    C   1.0     0.888174     0.594526     0.551181  Biso 1.000000     C
    C   1.0     0.355809     0.961185     0.617246  Biso 1.000000     C
    C   1.0     0.855809     0.961187     0.617247  Biso 1.000000     C
    C   1.0     0.352000     0.991475     0.726326  Biso 1.000000     C
    C   1.0     0.852001     0.991477     0.726326  Biso 1.000000     C
    C   1.0     0.339144     0.082541     0.692864  Biso 1.000000     C
    C   1.0     0.839145     0.082543     0.692864  Biso 1.000000     C
    C   1.0     0.360820     0.905325     0.551308  Biso 1.000000     C
    C   1.0     0.860820     0.905328     0.551308  Biso 1.000000     C
    C   1.0     0.042492     0.206638     0.104742  Biso 1.000000     C
    C   1.0     0.542491     0.206637     0.104742  Biso 1.000000     C
    C   1.0     0.028948     0.349055     0.043122  Biso 1.000000     C
    C   1.0     0.528947     0.349055     0.043122  Biso 1.000000     C
    C   1.0     0.015709     0.369282     0.109203  Biso 1.000000     C
    C   1.0     0.515707     0.369281     0.109203  Biso 1.000000     C
    C   1.0     0.058003     0.098592     0.124828  Biso 1.000000     C
    C   1.0     0.558002     0.098591     0.124828  Biso 1.000000     C
    C   1.0     0.458686     0.294570     0.395775  Biso 1.000000     C
    C   1.0     0.958684     0.294571     0.395775  Biso 1.000000     C
    C   1.0     0.471828     0.151854     0.457348  Biso 1.000000     C
    C   1.0     0.971826     0.151855     0.457348  Biso 1.000000     C
    C   1.0     0.485634     0.132075     0.391382  Biso 1.000000     C
    C   1.0     0.985631     0.132076     0.391382  Biso 1.000000     C
    C   1.0     0.443255     0.402669     0.375669  Biso 1.000000     C
    C   1.0     0.943253     0.402670     0.375669  Biso 1.000000     C
    C   1.0     0.142832     0.538181     0.882783  Biso 1.000000     C
    C   1.0     0.642832     0.538182     0.882782  Biso 1.000000     C
    C   1.0     0.159088     0.416539     0.807149  Biso 1.000000     C
    C   1.0     0.659089     0.416541     0.807148  Biso 1.000000     C
    C   1.0     0.145895     0.507339     0.773705  Biso 1.000000     C
    C   1.0     0.645896     0.507341     0.773704  Biso 1.000000     C
    C   1.0     0.138215     0.594383     0.948687  Biso 1.000000     C
    C   1.0     0.638214     0.594384     0.948687  Biso 1.000000     C
    C   1.0     0.105740     0.961721     0.883008  Biso 1.000000     C
    C   1.0     0.605740     0.961721     0.883008  Biso 1.000000     C
    C   1.0     0.101871     0.993137     0.773963  Biso 1.000000     C
    C   1.0     0.601871     0.993137     0.773963  Biso 1.000000     C
    C   1.0     0.088967     0.083807     0.807526  Biso 1.000000     C
    C   1.0     0.588966     0.083808     0.807526  Biso 1.000000     C
    C   1.0     0.110852     0.905224     0.948884  Biso 1.000000     C
    C   1.0     0.610852     0.905224     0.948884  Biso 1.000000     C
    C   1.0     0.292666     0.206963     0.395489  Biso 1.000000     C
    C   1.0     0.792666     0.206965     0.395489  Biso 1.000000     C
    C   1.0     0.279052     0.349373     0.456631  Biso 1.000000     C
    C   1.0     0.779052     0.349376     0.456630  Biso 1.000000     C
    C   1.0     0.265763     0.369493     0.390452  Biso 1.000000     C
    C   1.0     0.765764     0.369495     0.390451  Biso 1.000000     C
    C   1.0     0.308290     0.099000     0.375758  Biso 1.000000     C
    C   1.0     0.808289     0.099001     0.375759  Biso 1.000000     C
    C   1.0     0.208512     0.294142     0.103996  Biso 1.000000     C
    C   1.0     0.708512     0.294144     0.103996  Biso 1.000000     C
    C   1.0     0.221734     0.151472     0.042870  Biso 1.000000     C
    C   1.0     0.721734     0.151473     0.042869  Biso 1.000000     C
    C   1.0     0.235596     0.131773     0.108927  Biso 1.000000     C
    C   1.0     0.735597     0.131774     0.108926  Biso 1.000000     C
    C   1.0     0.192960     0.402140     0.123773  Biso 1.000000     C
    C   1.0     0.692960     0.402142     0.123773  Biso 1.000000     C
    C   1.0     0.107126     0.462316     0.382987  Biso 1.000000     C
    C   1.0     0.607126     0.462317     0.382987  Biso 1.000000     C
    C   1.0     0.090778     0.584738     0.307514  Biso 1.000000     C
    C   1.0     0.590777     0.584739     0.307514  Biso 1.000000     C
    C   1.0     0.104024     0.494355     0.273951  Biso 1.000000     C
    C   1.0     0.604023     0.494356     0.273951  Biso 1.000000     C
    C   1.0     0.111827     0.405442     0.448820  Biso 1.000000     C
    C   1.0     0.611827     0.405444     0.448820  Biso 1.000000     C
    C   1.0     0.144191     0.038781     0.382753  Biso 1.000000     C
    C   1.0     0.644191     0.038782     0.382753  Biso 1.000000     C
    C   1.0     0.148000     0.008492     0.273674  Biso 1.000000     C
    C   1.0     0.648000     0.008494     0.273674  Biso 1.000000     C
    C   1.0     0.160855     0.917425     0.307135  Biso 1.000000     C
    C   1.0     0.660856     0.917427     0.307135  Biso 1.000000     C
    C   1.0     0.139179     0.094639     0.448692  Biso 1.000000     C
    C   1.0     0.639179     0.094641     0.448692  Biso 1.000000     C
    C   1.0     0.457509     0.793331     0.895258  Biso 1.000000     C
    C   1.0     0.957507     0.793331     0.895258  Biso 1.000000     C
    C   1.0     0.471053     0.650915     0.956879  Biso 1.000000     C
    C   1.0     0.971051     0.650915     0.956879  Biso 1.000000     C
    C   1.0     0.484293     0.630688     0.890797  Biso 1.000000     C
    C   1.0     0.984291     0.630688     0.890798  Biso 1.000000     C
    C   1.0     0.441998     0.901378     0.875172  Biso 1.000000     C
    C   1.0     0.941996     0.901377     0.875172  Biso 1.000000     C
    C   1.0     0.041316     0.705399     0.604225  Biso 1.000000     C
    C   1.0     0.541314     0.705399     0.604225  Biso 1.000000     C
    C   1.0     0.028173     0.848115     0.542651  Biso 1.000000     C
    C   1.0     0.528172     0.848115     0.542652  Biso 1.000000     C
    C   1.0     0.014368     0.867894     0.608618  Biso 1.000000     C
    C   1.0     0.514366     0.867894     0.608618  Biso 1.000000     C
    C   1.0     0.056747     0.597300     0.624331  Biso 1.000000     C
    C   1.0     0.556745     0.597300     0.624331  Biso 1.000000     C
    N   1.0     0.342973     0.563786     0.123932  Biso 1.000000     N
    N   1.0     0.842974     0.563788     0.123931  Biso 1.000000     N
    N   1.0     0.364685     0.416248     0.178402  Biso 1.000000     N
    N   1.0     0.864686     0.416249     0.178401  Biso 1.000000     N
    N   1.0     0.387226     0.083497     0.178239  Biso 1.000000     N
    N   1.0     0.887225     0.083497     0.178239  Biso 1.000000     N
    N   1.0     0.408462     0.936176     0.123577  Biso 1.000000     N
    N   1.0     0.908462     0.936177     0.123577  Biso 1.000000     N
    N   1.0     0.204154     0.753412     0.540382  Biso 1.000000     N
    N   1.0     0.704153     0.753414     0.540383  Biso 1.000000     N
    N   1.0     0.225548     0.720590     0.647930  Biso 1.000000     N
    N   1.0     0.725549     0.720592     0.647930  Biso 1.000000     N
    N   1.0     0.272836     0.777912     0.852702  Biso 1.000000     N
    N   1.0     0.772836     0.777914     0.852702  Biso 1.000000     N
    N   1.0     0.295172     0.745780     0.960050  Biso 1.000000     N
    N   1.0     0.795173     0.745781     0.960050  Biso 1.000000     N
    N   1.0     0.407138     0.435634     0.623595  Biso 1.000000     N
    N   1.0     0.907138     0.435635     0.623595  Biso 1.000000     N
    N   1.0     0.385345     0.582499     0.678258  Biso 1.000000     N
    N   1.0     0.885344     0.582500     0.678258  Biso 1.000000     N
    N   1.0     0.362842     0.915280     0.678445  Biso 1.000000     N
    N   1.0     0.862843     0.915282     0.678445  Biso 1.000000     N
    N   1.0     0.341675     0.063244     0.623944  Biso 1.000000     N
    N   1.0     0.841675     0.063247     0.623944  Biso 1.000000     N
    N   1.0     0.045671     0.246176     0.040502  Biso 1.000000     N
    N   1.0     0.545670     0.246175     0.040502  Biso 1.000000     N
    N   1.0     0.024355     0.279168     0.147889  Biso 1.000000     N
    N   1.0     0.524353     0.279167     0.147889  Biso 1.000000     N
    N   1.0     0.477249     0.222384     0.352727  Biso 1.000000     N
    N   1.0     0.977247     0.222385     0.352727  Biso 1.000000     N
    N   1.0     0.455001     0.254642     0.459926  Biso 1.000000     N
    N   1.0     0.955000     0.254643     0.459926  Biso 1.000000     N
    N   1.0     0.157027     0.436185     0.876068  Biso 1.000000     N
    N   1.0     0.657027     0.436186     0.876067  Biso 1.000000     N
    N   1.0     0.135314     0.583723     0.821598  Biso 1.000000     N
    N   1.0     0.635314     0.583724     0.821598  Biso 1.000000     N
    N   1.0     0.112773     0.916475     0.821760  Biso 1.000000     N
    N   1.0     0.612773     0.916475     0.821760  Biso 1.000000     N
    N   1.0     0.091537     0.063795     0.876423  Biso 1.000000     N
    N   1.0     0.591537     0.063795     0.876423  Biso 1.000000     N
    N   1.0     0.295846     0.246554     0.459617  Biso 1.000000     N
    N   1.0     0.795846     0.246556     0.459617  Biso 1.000000     N
    N   1.0     0.274452     0.279378     0.352070  Biso 1.000000     N
    N   1.0     0.774452     0.279380     0.352069  Biso 1.000000     N
    N   1.0     0.227163     0.222059     0.147298  Biso 1.000000     N
    N   1.0     0.727164     0.222061     0.147298  Biso 1.000000     N
    N   1.0     0.204826     0.254190     0.039950  Biso 1.000000     N
    N   1.0     0.704826     0.254192     0.039950  Biso 1.000000     N
    N   1.0     0.092862     0.564332     0.376406  Biso 1.000000     N
    N   1.0     0.592862     0.564334     0.376406  Biso 1.000000     N
    N   1.0     0.114658     0.417469     0.321743  Biso 1.000000     N
    N   1.0     0.614657     0.417470     0.321743  Biso 1.000000     N
    N   1.0     0.137158     0.084687     0.321555  Biso 1.000000     N
    N   1.0     0.637159     0.084688     0.321555  Biso 1.000000     N
    N   1.0     0.158324     0.936721     0.376055  Biso 1.000000     N
    N   1.0     0.658325     0.936723     0.376055  Biso 1.000000     N
    N   1.0     0.454329     0.753794     0.959497  Biso 1.000000     N
    N   1.0     0.954328     0.753794     0.959498  Biso 1.000000     N
    N   1.0     0.475647     0.720802     0.852111  Biso 1.000000     N
    N   1.0     0.975645     0.720802     0.852111  Biso 1.000000     N
    N   1.0     0.022753     0.777586     0.647274  Biso 1.000000     N
    N   1.0     0.522751     0.777586     0.647273  Biso 1.000000     N
    N   1.0     0.045000     0.745326     0.540074  Biso 1.000000     N
    N   1.0     0.544999     0.745327     0.540074  Biso 1.000000     N
   Ag   1.0     0.322046     0.662533     0.044092  Biso 1.000000    Ag
   Ag   1.0     0.822046     0.662535     0.044091  Biso 1.000000    Ag
   Ag   1.0     0.376007     0.249844     0.189791  Biso 1.000000    Ag
   Ag   1.0     0.876006     0.249845     0.189790  Biso 1.000000    Ag
   Ag   1.0     0.428463     0.837506     0.043574  Biso 1.000000    Ag
   Ag   1.0     0.928463     0.837507     0.043574  Biso 1.000000    Ag
   Ag   1.0     0.249071     0.749177     0.750356  Biso 1.000000    Ag
   Ag   1.0     0.749071     0.749178     0.750356  Biso 1.000000    Ag
   Ag   1.0     0.428116     0.337640     0.543737  Biso 1.000000    Ag
   Ag   1.0     0.928115     0.337642     0.543738  Biso 1.000000    Ag
   Ag   1.0     0.374018     0.748794     0.689827  Biso 1.000000    Ag
   Ag   1.0     0.874018     0.748795     0.689827  Biso 1.000000    Ag
   Ag   1.0     0.321709     0.162631     0.543937  Biso 1.000000    Ag
   Ag   1.0     0.821709     0.162633     0.543937  Biso 1.000000    Ag
   Ag   1.0     0.000923     0.250864     0.250349  Biso 1.000000    Ag
   Ag   1.0     0.500921     0.250863     0.250349  Biso 1.000000    Ag
   Ag   1.0     0.177954     0.337437     0.955908  Biso 1.000000    Ag
   Ag   1.0     0.677954     0.337438     0.955907  Biso 1.000000    Ag
   Ag   1.0     0.123993     0.750127     0.810209  Biso 1.000000    Ag
   Ag   1.0     0.623992     0.750127     0.810209  Biso 1.000000    Ag
   Ag   1.0     0.071536     0.162464     0.956425  Biso 1.000000    Ag
   Ag   1.0     0.571536     0.162464     0.956426  Biso 1.000000    Ag
   Ag   1.0     0.250929     0.250793     0.249644  Biso 1.000000    Ag
   Ag   1.0     0.750929     0.250795     0.249644  Biso 1.000000    Ag
   Ag   1.0     0.071884     0.662326     0.456263  Biso 1.000000    Ag
   Ag   1.0     0.571884     0.662327     0.456263  Biso 1.000000    Ag
   Ag   1.0     0.125983     0.251174     0.310174  Biso 1.000000    Ag
   Ag   1.0     0.625983     0.251175     0.310174  Biso 1.000000    Ag
   Ag   1.0     0.178290     0.837334     0.456063  Biso 1.000000    Ag
   Ag   1.0     0.678290     0.837336     0.456063  Biso 1.000000    Ag
   Ag   1.0     0.499079     0.749106     0.749651  Biso 1.000000    Ag
   Ag   1.0     0.999077     0.749106     0.749652  Biso 1.000000    Ag
