#======================================================================

# CRYSTAL DATA

#----------------------------------------------------------------------

data_VESTA_phase_1


_pd_phase_name                         MOF
_cell_length_a                         15.63200
_cell_length_b                         21.36200
_cell_length_c                         17.95500
_cell_angle_alpha                      89.93900
_cell_angle_beta                       90.23800
_cell_angle_gamma                      90.00400
_symmetry_space_group_name_H-M         "P 1"
_symmetry_Int_Tables_number            1

loop_
_symmetry_equiv_pos_as_xyz
   "x, y, z"

loop_
   _atom_site_label
   _atom_site_occupancy
   _atom_site_fract_x
   _atom_site_fract_y
   _atom_site_fract_z
   _atom_site_adp_type
   _atom_site_B_iso_or_equiv
   _atom_site_type_symbol
    H   1.0     0.049195     0.191688     0.812976  Biso 1.000000     H
    H   1.0     0.049663     0.691722     0.812778  Biso 1.000000     H
    H   1.0     0.549187     0.191688     0.812976  Biso 1.000000     H
    H   1.0     0.549655     0.691722     0.812778  Biso 1.000000     H
    H   1.0     0.110067     0.224903     0.741858  Biso 1.000000     H
    H   1.0     0.110909     0.724630     0.741700  Biso 1.000000     H
    H   1.0     0.610059     0.224903     0.741858  Biso 1.000000     H
    H   1.0     0.610901     0.724630     0.741699  Biso 1.000000     H
    H   1.0     0.495229     0.150049     0.582637  Biso 1.000000     H
    H   1.0     0.495021     0.650696     0.582375  Biso 1.000000     H
    H   1.0     0.995222     0.150049     0.582637  Biso 1.000000     H
    H   1.0     0.995014     0.650697     0.582375  Biso 1.000000     H
    H   1.0     0.088483     0.112836     0.614536  Biso 1.000000     H
    H   1.0     0.088420     0.613539     0.614093  Biso 1.000000     H
    H   1.0     0.588474     0.112836     0.614536  Biso 1.000000     H
    H   1.0     0.588412     0.613539     0.614093  Biso 1.000000     H
    H   1.0     0.168618     0.210280     0.620944  Biso 1.000000     H
    H   1.0     0.168216     0.711180     0.620930  Biso 1.000000     H
    H   1.0     0.668609     0.210280     0.620944  Biso 1.000000     H
    H   1.0     0.668207     0.711181     0.620930  Biso 1.000000     H
    H   1.0     0.075506     0.256483     0.616108  Biso 1.000000     H
    H   1.0     0.074937     0.757183     0.616124  Biso 1.000000     H
    H   1.0     0.575497     0.256483     0.616107  Biso 1.000000     H
    H   1.0     0.574927     0.757182     0.616123  Biso 1.000000     H
    H   1.0     0.214581     0.061479     0.757896  Biso 1.000000     H
    H   1.0     0.214303     0.560850     0.757776  Biso 1.000000     H
    H   1.0     0.714573     0.061479     0.757896  Biso 1.000000     H
    H   1.0     0.714295     0.560850     0.757775  Biso 1.000000     H
    H   1.0     0.365704     0.218380     0.568933  Biso 1.000000     H
    H   1.0     0.365644     0.719454     0.569007  Biso 1.000000     H
    H   1.0     0.865696     0.218380     0.568934  Biso 1.000000     H
    H   1.0     0.865636     0.719454     0.569007  Biso 1.000000     H
    H   1.0     0.424653     0.018568     0.693079  Biso 1.000000     H
    H   1.0     0.424870     0.518831     0.693007  Biso 1.000000     H
    H   1.0     0.924645     0.018568     0.693078  Biso 1.000000     H
    H   1.0     0.924863     0.518831     0.693007  Biso 1.000000     H
    H   1.0     0.198869     0.441923     0.686988  Biso 1.000000     H
    H   1.0     0.198354     0.942280     0.687060  Biso 1.000000     H
    H   1.0     0.698861     0.441923     0.686987  Biso 1.000000     H
    H   1.0     0.698346     0.942279     0.687059  Biso 1.000000     H
    H   1.0     0.138114     0.474849     0.758284  Biso 1.000000     H
    H   1.0     0.137186     0.974991     0.758232  Biso 1.000000     H
    H   1.0     0.638106     0.474849     0.758283  Biso 1.000000     H
    H   1.0     0.637178     0.974991     0.758231  Biso 1.000000     H
    H   1.0     0.253472     0.399311     0.917090  Biso 1.000000     H
    H   1.0     0.253153     0.900429     0.917305  Biso 1.000000     H
    H   1.0     0.753464     0.399311     0.917089  Biso 1.000000     H
    H   1.0     0.753145     0.900429     0.917305  Biso 1.000000     H
    H   1.0     0.159492     0.363066     0.885295  Biso 1.000000     H
    H   1.0     0.159465     0.863712     0.885624  Biso 1.000000     H
    H   1.0     0.659484     0.363067     0.885294  Biso 1.000000     H
    H   1.0     0.659457     0.863713     0.885624  Biso 1.000000     H
    H   1.0     0.080850     0.461084     0.879923  Biso 1.000000     H
    H   1.0     0.080184     0.961566     0.879545  Biso 1.000000     H
    H   1.0     0.580844     0.461086     0.879921  Biso 1.000000     H
    H   1.0     0.580176     0.961567     0.879545  Biso 1.000000     H
    H   1.0     0.173712     0.007279     0.883546  Biso 1.000000     H
    H   1.0     0.174644     0.506574     0.883582  Biso 1.000000     H
    H   1.0     0.673705     0.007280     0.883546  Biso 1.000000     H
    H   1.0     0.674638     0.506574     0.883582  Biso 1.000000     H
    H   1.0     0.033719     0.311361     0.741917  Biso 1.000000     H
    H   1.0     0.033884     0.811203     0.742015  Biso 1.000000     H
    H   1.0     0.533711     0.311361     0.741917  Biso 1.000000     H
    H   1.0     0.533876     0.811203     0.742015  Biso 1.000000     H
    H   1.0     0.382379     0.468815     0.930922  Biso 1.000000     H
    H   1.0     0.384166     0.968558     0.931144  Biso 1.000000     H
    H   1.0     0.882371     0.468815     0.930922  Biso 1.000000     H
    H   1.0     0.884158     0.968559     0.931144  Biso 1.000000     H
    H   1.0     0.323367     0.268409     0.806647  Biso 1.000000     H
    H   1.0     0.323464     0.769233     0.806873  Biso 1.000000     H
    H   1.0     0.823359     0.268409     0.806647  Biso 1.000000     H
    H   1.0     0.823456     0.769233     0.806873  Biso 1.000000     H
    H   1.0     0.450330     0.308282     0.187236  Biso 1.000000     H
    H   1.0     0.450792     0.808316     0.187040  Biso 1.000000     H
    H   1.0     0.950323     0.308282     0.187236  Biso 1.000000     H
    H   1.0     0.950784     0.808317     0.187040  Biso 1.000000     H
    H   1.0     0.389086     0.275373     0.258315  Biso 1.000000     H
    H   1.0     0.389919     0.775103     0.258159  Biso 1.000000     H
    H   1.0     0.889078     0.275372     0.258314  Biso 1.000000     H
    H   1.0     0.889911     0.775103     0.258159  Biso 1.000000     H
    H   1.0     0.004965     0.349312     0.417639  Biso 1.000000     H
    H   1.0     0.004759     0.849957     0.417379  Biso 1.000000     H
    H   1.0     0.504958     0.349313     0.417639  Biso 1.000000     H
    H   1.0     0.504752     0.849957     0.417378  Biso 1.000000     H
    H   1.0     0.411564     0.386466     0.385918  Biso 1.000000     H
    H   1.0     0.411505     0.887168     0.385479  Biso 1.000000     H
    H   1.0     0.911556     0.386465     0.385918  Biso 1.000000     H
    H   1.0     0.911497     0.887169     0.385479  Biso 1.000000     H
    H   1.0     0.331778     0.288819     0.379083  Biso 1.000000     H
    H   1.0     0.331374     0.789722     0.379073  Biso 1.000000     H
    H   1.0     0.831769     0.288818     0.379083  Biso 1.000000     H
    H   1.0     0.831365     0.789722     0.379073  Biso 1.000000     H
    H   1.0     0.425062     0.242822     0.383895  Biso 1.000000     H
    H   1.0     0.424488     0.743521     0.383913  Biso 1.000000     H
    H   1.0     0.925054     0.242822     0.383895  Biso 1.000000     H
    H   1.0     0.924479     0.743522     0.383913  Biso 1.000000     H
    H   1.0     0.285690     0.439152     0.242238  Biso 1.000000     H
    H   1.0     0.285410     0.938528     0.242121  Biso 1.000000     H
    H   1.0     0.785682     0.439151     0.242238  Biso 1.000000     H
    H   1.0     0.785401     0.938529     0.242121  Biso 1.000000     H
    H   1.0     0.134345     0.280554     0.431013  Biso 1.000000     H
    H   1.0     0.134285     0.781627     0.431084  Biso 1.000000     H
    H   1.0     0.634337     0.280554     0.431013  Biso 1.000000     H
    H   1.0     0.634277     0.781627     0.431084  Biso 1.000000     H
    H   1.0     0.075121     0.481174     0.307006  Biso 1.000000     H
    H   1.0     0.075338     0.981434     0.306940  Biso 1.000000     H
    H   1.0     0.575114     0.481174     0.307005  Biso 1.000000     H
    H   1.0     0.575331     0.981434     0.306940  Biso 1.000000     H
    H   1.0     0.301637     0.057727     0.312958  Biso 1.000000     H
    H   1.0     0.301121     0.558081     0.313025  Biso 1.000000     H
    H   1.0     0.801629     0.057726     0.312957  Biso 1.000000     H
    H   1.0     0.801113     0.558080     0.313024  Biso 1.000000     H
    H   1.0     0.362805     0.025016     0.241785  Biso 1.000000     H
    H   1.0     0.361877     0.525157     0.241729  Biso 1.000000     H
    H   1.0     0.862797     0.025017     0.241784  Biso 1.000000     H
    H   1.0     0.861870     0.525157     0.241727  Biso 1.000000     H
    H   1.0     0.246838     0.099579     0.082712  Biso 1.000000     H
    H   1.0     0.246526     0.600697     0.082923  Biso 1.000000     H
    H   1.0     0.746831     0.099580     0.082712  Biso 1.000000     H
    H   1.0     0.746519     0.600697     0.082922  Biso 1.000000     H
    H   1.0     0.340526     0.136295     0.114395  Biso 1.000000     H
    H   1.0     0.340501     0.636945     0.114722  Biso 1.000000     H
    H   1.0     0.840518     0.136296     0.114395  Biso 1.000000     H
    H   1.0     0.840494     0.636946     0.114721  Biso 1.000000     H
    H   1.0     0.419807     0.038442     0.120473  Biso 1.000000     H
    H   1.0     0.419153     0.538934     0.120088  Biso 1.000000     H
    H   1.0     0.919800     0.038443     0.120472  Biso 1.000000     H
    H   1.0     0.919148     0.538936     0.120086  Biso 1.000000     H
    H   1.0     0.325365     0.493437     0.116438  Biso 1.000000     H
    H   1.0     0.326279     0.992728     0.116472  Biso 1.000000     H
    H   1.0     0.825361     0.493438     0.116439  Biso 1.000000     H
    H   1.0     0.826272     0.992729     0.116472  Biso 1.000000     H
    H   1.0     0.466107     0.188804     0.258003  Biso 1.000000     H
    H   1.0     0.466272     0.688644     0.258101  Biso 1.000000     H
    H   1.0     0.966099     0.188803     0.258003  Biso 1.000000     H
    H   1.0     0.966264     0.688644     0.258101  Biso 1.000000     H
    H   1.0     0.115825     0.031449     0.068874  Biso 1.000000     H
    H   1.0     0.117610     0.531193     0.069096  Biso 1.000000     H
    H   1.0     0.615817     0.031450     0.068874  Biso 1.000000     H
    H   1.0     0.617602     0.531194     0.069096  Biso 1.000000     H
    H   1.0     0.176527     0.230774     0.193145  Biso 1.000000     H
    H   1.0     0.176622     0.731597     0.193369  Biso 1.000000     H
    H   1.0     0.676519     0.230775     0.193145  Biso 1.000000     H
    H   1.0     0.676614     0.731597     0.193369  Biso 1.000000     H
    C   1.0     0.154349     0.138215     0.779198  Biso 1.000000     C
    C   1.0     0.154195     0.637619     0.778984  Biso 1.000000     C
    C   1.0     0.654341     0.138215     0.779197  Biso 1.000000     C
    C   1.0     0.654187     0.637618     0.778983  Biso 1.000000     C
    C   1.0     0.080762     0.180763     0.760032  Biso 1.000000     C
    C   1.0     0.081061     0.680659     0.759799  Biso 1.000000     C
    C   1.0     0.580754     0.180763     0.760032  Biso 1.000000     C
    C   1.0     0.581053     0.680659     0.759799  Biso 1.000000     C
    C   1.0     0.015385     0.158075     0.701388  Biso 1.000000     C
    C   1.0     0.015320     0.658487     0.701152  Biso 1.000000     C
    C   1.0     0.515377     0.158075     0.701388  Biso 1.000000     C
    C   1.0     0.515312     0.658487     0.701152  Biso 1.000000     C
    C   1.0     0.050007     0.155449     0.620506  Biso 1.000000     C
    C   1.0     0.049819     0.656083     0.620230  Biso 1.000000     C
    C   1.0     0.549999     0.155450     0.620506  Biso 1.000000     C
    C   1.0     0.549810     0.656083     0.620230  Biso 1.000000     C
    C   1.0     0.103468     0.212268     0.596979  Biso 1.000000     C
    C   1.0     0.103101     0.713071     0.596887  Biso 1.000000     C
    C   1.0     0.603460     0.212268     0.596979  Biso 1.000000     C
    C   1.0     0.603092     0.713071     0.596887  Biso 1.000000     C
    C   1.0     0.114995     0.217679     0.513814  Biso 1.000000     C
    C   1.0     0.114809     0.718703     0.513760  Biso 1.000000     C
    C   1.0     0.614987     0.217679     0.513814  Biso 1.000000     C
    C   1.0     0.614801     0.718703     0.513759  Biso 1.000000     C
    C   1.0     0.478737     0.095479     0.725545  Biso 1.000000     C
    C   1.0     0.478557     0.595947     0.725289  Biso 1.000000     C
    C   1.0     0.978729     0.095479     0.725544  Biso 1.000000     C
    C   1.0     0.978549     0.595947     0.725289  Biso 1.000000     C
    C   1.0     0.093814     0.388317     0.720795  Biso 1.000000     C
    C   1.0     0.093866     0.888073     0.720890  Biso 1.000000     C
    C   1.0     0.593806     0.388317     0.720794  Biso 1.000000     C
    C   1.0     0.593858     0.888073     0.720890  Biso 1.000000     C
    C   1.0     0.167458     0.430800     0.739976  Biso 1.000000     C
    C   1.0     0.167006     0.931070     0.740047  Biso 1.000000     C
    C   1.0     0.667450     0.430800     0.739975  Biso 1.000000     C
    C   1.0     0.666998     0.931070     0.740047  Biso 1.000000     C
    C   1.0     0.233059     0.408064     0.798474  Biso 1.000000     C
    C   1.0     0.232731     0.908704     0.798621  Biso 1.000000     C
    C   1.0     0.733051     0.408064     0.798473  Biso 1.000000     C
    C   1.0     0.732723     0.908705     0.798621  Biso 1.000000     C
    C   1.0     0.198674     0.405361     0.879386  Biso 1.000000     C
    C   1.0     0.198334     0.906148     0.879546  Biso 1.000000     C
    C   1.0     0.698667     0.405361     0.879385  Biso 1.000000     C
    C   1.0     0.698327     0.906148     0.879546  Biso 1.000000     C
    C   1.0     0.146339     0.462598     0.903209  Biso 1.000000     C
    C   1.0     0.145533     0.963247     0.903103  Biso 1.000000     C
    C   1.0     0.646332     0.462599     0.903208  Biso 1.000000     C
    C   1.0     0.645525     0.963248     0.903103  Biso 1.000000     C
    C   1.0     0.136129     0.468219     0.986439  Biso 1.000000     C
    C   1.0     0.134881     0.968899     0.986298  Biso 1.000000     C
    C   1.0     0.636121     0.468219     0.986438  Biso 1.000000     C
    C   1.0     0.634873     0.968900     0.986297  Biso 1.000000     C
    C   1.0     0.269626     0.345524     0.774277  Biso 1.000000     C
    C   1.0     0.269516     0.846257     0.774483  Biso 1.000000     C
    C   1.0     0.769619     0.345524     0.774276  Biso 1.000000     C
    C   1.0     0.769508     0.846257     0.774483  Biso 1.000000     C
    C   1.0     0.345796     0.362384     0.221031  Biso 1.000000     C
    C   1.0     0.345640     0.861792     0.220820  Biso 1.000000     C
    C   1.0     0.845788     0.362383     0.221031  Biso 1.000000     C
    C   1.0     0.845632     0.861792     0.220820  Biso 1.000000     C
    C   1.0     0.418931     0.319345     0.240215  Biso 1.000000     C
    C   1.0     0.419225     0.819242     0.239985  Biso 1.000000     C
    C   1.0     0.918923     0.319344     0.240215  Biso 1.000000     C
    C   1.0     0.919217     0.819243     0.239985  Biso 1.000000     C
    C   1.0     0.484671     0.341519     0.298862  Biso 1.000000     C
    C   1.0     0.484604     0.841929     0.298628  Biso 1.000000     C
    C   1.0     0.984663     0.341518     0.298862  Biso 1.000000     C
    C   1.0     0.984596     0.841929     0.298629  Biso 1.000000     C
    C   1.0     0.450170     0.343923     0.379784  Biso 1.000000     C
    C   1.0     0.449983     0.844555     0.379510  Biso 1.000000     C
    C   1.0     0.950162     0.343923     0.379784  Biso 1.000000     C
    C   1.0     0.949974     0.844555     0.379510  Biso 1.000000     C
    C   1.0     0.396893     0.286933     0.403128  Biso 1.000000     C
    C   1.0     0.396523     0.787736     0.403039  Biso 1.000000     C
    C   1.0     0.896884     0.286933     0.403128  Biso 1.000000     C
    C   1.0     0.896514     0.787737     0.403039  Biso 1.000000     C
    C   1.0     0.385181     0.281303     0.486256  Biso 1.000000     C
    C   1.0     0.384995     0.782328     0.486204  Biso 1.000000     C
    C   1.0     0.885173     0.281303     0.486256  Biso 1.000000     C
    C   1.0     0.884987     0.782328     0.486204  Biso 1.000000     C
    C   1.0     0.021433     0.404059     0.274725  Biso 1.000000     C
    C   1.0     0.021253     0.904525     0.274473  Biso 1.000000     C
    C   1.0     0.521426     0.404059     0.274724  Biso 1.000000     C
    C   1.0     0.521245     0.904525     0.274472  Biso 1.000000     C
    C   1.0     0.406124     0.111935     0.279128  Biso 1.000000     C
    C   1.0     0.406177     0.611688     0.279222  Biso 1.000000     C
    C   1.0     0.906117     0.111935     0.279128  Biso 1.000000     C
    C   1.0     0.906170     0.611688     0.279221  Biso 1.000000     C
    C   1.0     0.332984     0.068937     0.259971  Biso 1.000000     C
    C   1.0     0.332533     0.569206     0.260038  Biso 1.000000     C
    C   1.0     0.832977     0.068937     0.259970  Biso 1.000000     C
    C   1.0     0.832526     0.569206     0.260037  Biso 1.000000     C
    C   1.0     0.267259     0.091302     0.201397  Biso 1.000000     C
    C   1.0     0.266934     0.591943     0.201540  Biso 1.000000     C
    C   1.0     0.767251     0.091303     0.201397  Biso 1.000000     C
    C   1.0     0.766927     0.591943     0.201539  Biso 1.000000     C
    C   1.0     0.301656     0.093860     0.120472  Biso 1.000000     C
    C   1.0     0.301322     0.594649     0.120629  Biso 1.000000     C
    C   1.0     0.801649     0.093860     0.120472  Biso 1.000000     C
    C   1.0     0.801315     0.594650     0.120628  Biso 1.000000     C
    C   1.0     0.354458     0.036760     0.096915  Biso 1.000000     C
    C   1.0     0.353663     0.537414     0.096807  Biso 1.000000     C
    C   1.0     0.854451     0.036761     0.096914  Biso 1.000000     C
    C   1.0     0.853657     0.537414     0.096806  Biso 1.000000     C
    C   1.0     0.365110     0.031108     0.013720  Biso 1.000000     C
    C   1.0     0.363865     0.531790     0.013576  Biso 1.000000     C
    C   1.0     0.865102     0.031109     0.013720  Biso 1.000000     C
    C   1.0     0.863858     0.531790     0.013576  Biso 1.000000     C
    C   1.0     0.230474     0.153750     0.225535  Biso 1.000000     C
    C   1.0     0.230366     0.654483     0.225739  Biso 1.000000     C
    C   1.0     0.730467     0.153751     0.225535  Biso 1.000000     C
    C   1.0     0.730358     0.654483     0.225738  Biso 1.000000     C
    O   1.0     0.203949     0.151913     0.831194  Biso 1.000000     O
    O   1.0     0.203753     0.651022     0.831118  Biso 1.000000     O
    O   1.0     0.703941     0.151913     0.831194  Biso 1.000000     O
    O   1.0     0.703745     0.651022     0.831118  Biso 1.000000     O
    O   1.0     0.162978     0.087866     0.737545  Biso 1.000000     O
    O   1.0     0.162673     0.587218     0.737379  Biso 1.000000     O
    O   1.0     0.662970     0.087867     0.737545  Biso 1.000000     O
    O   1.0     0.662665     0.587219     0.737379  Biso 1.000000     O
    O   1.0     0.110871     0.170823     0.471751  Biso 1.000000     O
    O   1.0     0.110793     0.671924     0.471579  Biso 1.000000     O
    O   1.0     0.610863     0.170823     0.471751  Biso 1.000000     O
    O   1.0     0.610785     0.671924     0.471579  Biso 1.000000     O
    O   1.0     0.129373     0.274608     0.490751  Biso 1.000000     O
    O   1.0     0.129255     0.775667     0.490849  Biso 1.000000     O
    O   1.0     0.629365     0.274608     0.490751  Biso 1.000000     O
    O   1.0     0.629247     0.775666     0.490849  Biso 1.000000     O
    O   1.0     0.467419     0.083162     0.792829  Biso 1.000000     O
    O   1.0     0.467325     0.583785     0.792610  Biso 1.000000     O
    O   1.0     0.967411     0.083162     0.792829  Biso 1.000000     O
    O   1.0     0.967317     0.583785     0.792610  Biso 1.000000     O
    O   1.0     0.455956     0.056923     0.671812  Biso 1.000000     O
    O   1.0     0.455701     0.557295     0.671671  Biso 1.000000     O
    O   1.0     0.955948     0.056923     0.671812  Biso 1.000000     O
    O   1.0     0.955693     0.557295     0.671671  Biso 1.000000     O
    O   1.0     0.380948     0.206115     0.784998  Biso 1.000000     O
    O   1.0     0.380954     0.706646     0.785103  Biso 1.000000     O
    O   1.0     0.880941     0.206114     0.784998  Biso 1.000000     O
    O   1.0     0.880946     0.706646     0.785103  Biso 1.000000     O
    O   1.0     0.462762     0.280634     0.700158  Biso 1.000000     O
    O   1.0     0.462830     0.781226     0.700373  Biso 1.000000     O
    O   1.0     0.962754     0.280634     0.700158  Biso 1.000000     O
    O   1.0     0.962822     0.781226     0.700373  Biso 1.000000     O
    O   1.0     0.359709     0.200183     0.643540  Biso 1.000000     O
    O   1.0     0.359631     0.701174     0.643606  Biso 1.000000     O
    O   1.0     0.859701     0.200182     0.643540  Biso 1.000000     O
    O   1.0     0.859624     0.701173     0.643606  Biso 1.000000     O
    O   1.0     0.044188     0.402256     0.668883  Biso 1.000000     O
    O   1.0     0.044285     0.901584     0.668780  Biso 1.000000     O
    O   1.0     0.544180     0.402256     0.668883  Biso 1.000000     O
    O   1.0     0.544277     0.901584     0.668780  Biso 1.000000     O
    O   1.0     0.085132     0.337811     0.762324  Biso 1.000000     O
    O   1.0     0.085438     0.837596     0.762495  Biso 1.000000     O
    O   1.0     0.585124     0.337811     0.762324  Biso 1.000000     O
    O   1.0     0.585430     0.837596     0.762495  Biso 1.000000     O
    O   1.0     0.140772     0.421424     0.028629  Biso 1.000000     O
    O   1.0     0.140869     0.922318     0.028671  Biso 1.000000     O
    O   1.0     0.640764     0.421424     0.028629  Biso 1.000000     O
    O   1.0     0.640861     0.922318     0.028670  Biso 1.000000     O
    O   1.0     0.119344     0.025687     0.009117  Biso 1.000000     O
    O   1.0     0.122349     0.525228     0.009358  Biso 1.000000     O
    O   1.0     0.619336     0.025688     0.009117  Biso 1.000000     O
    O   1.0     0.622341     0.525228     0.009357  Biso 1.000000     O
    O   1.0     0.280859     0.333393     0.706975  Biso 1.000000     O
    O   1.0     0.280800     0.834220     0.707172  Biso 1.000000     O
    O   1.0     0.780851     0.333393     0.706974  Biso 1.000000     O
    O   1.0     0.780792     0.834221     0.707172  Biso 1.000000     O
    O   1.0     0.292395     0.306791     0.827970  Biso 1.000000     O
    O   1.0     0.292473     0.807593     0.828166  Biso 1.000000     O
    O   1.0     0.792387     0.306791     0.827969  Biso 1.000000     O
    O   1.0     0.792466     0.807594     0.828166  Biso 1.000000     O
    O   1.0     0.367466     0.456229     0.714753  Biso 1.000000     O
    O   1.0     0.367129     0.956903     0.714728  Biso 1.000000     O
    O   1.0     0.867458     0.456229     0.714752  Biso 1.000000     O
    O   1.0     0.867121     0.956904     0.714728  Biso 1.000000     O
    O   1.0     0.285467     0.031262     0.799569  Biso 1.000000     O
    O   1.0     0.285518     0.530740     0.799325  Biso 1.000000     O
    O   1.0     0.785458     0.031262     0.799568  Biso 1.000000     O
    O   1.0     0.785510     0.530740     0.799323  Biso 1.000000     O
    O   1.0     0.388556     0.450588     0.856343  Biso 1.000000     O
    O   1.0     0.388416     0.950703     0.856210  Biso 1.000000     O
    O   1.0     0.888548     0.450588     0.856343  Biso 1.000000     O
    O   1.0     0.888408     0.950706     0.856210  Biso 1.000000     O
    O   1.0     0.296237     0.348981     0.168897  Biso 1.000000     O
    O   1.0     0.296040     0.848095     0.168823  Biso 1.000000     O
    O   1.0     0.796229     0.348980     0.168896  Biso 1.000000     O
    O   1.0     0.796032     0.848095     0.168823  Biso 1.000000     O
    O   1.0     0.337316     0.412784     0.262637  Biso 1.000000     O
    O   1.0     0.337013     0.912140     0.262473  Biso 1.000000     O
    O   1.0     0.837308     0.412783     0.262636  Biso 1.000000     O
    O   1.0     0.837005     0.912141     0.262472  Biso 1.000000     O
    O   1.0     0.389197     0.328083     0.528435  Biso 1.000000     O
    O   1.0     0.389119     0.829184     0.528265  Biso 1.000000     O
    O   1.0     0.889189     0.328083     0.528435  Biso 1.000000     O
    O   1.0     0.889111     0.829184     0.528266  Biso 1.000000     O
    O   1.0     0.370734     0.224340     0.509168  Biso 1.000000     O
    O   1.0     0.370616     0.725399     0.509269  Biso 1.000000     O
    O   1.0     0.870726     0.224340     0.509168  Biso 1.000000     O
    O   1.0     0.870608     0.725399     0.509268  Biso 1.000000     O
    O   1.0     0.032666     0.416221     0.207404  Biso 1.000000     O
    O   1.0     0.032570     0.916844     0.207188  Biso 1.000000     O
    O   1.0     0.532658     0.416221     0.207404  Biso 1.000000     O
    O   1.0     0.532562     0.916843     0.207188  Biso 1.000000     O
    O   1.0     0.044289     0.442711     0.328343  Biso 1.000000     O
    O   1.0     0.044036     0.943079     0.328206  Biso 1.000000     O
    O   1.0     0.544282     0.442711     0.328343  Biso 1.000000     O
    O   1.0     0.544028     0.943079     0.328206  Biso 1.000000     O
    O   1.0     0.119039     0.293361     0.214914  Biso 1.000000     O
    O   1.0     0.119041     0.793890     0.215019  Biso 1.000000     O
    O   1.0     0.619031     0.293361     0.214914  Biso 1.000000     O
    O   1.0     0.619033     0.793889     0.215018  Biso 1.000000     O
    O   1.0     0.037162     0.218781     0.299644  Biso 1.000000     O
    O   1.0     0.037229     0.719370     0.299860  Biso 1.000000     O
    O   1.0     0.537154     0.218781     0.299644  Biso 1.000000     O
    O   1.0     0.537221     0.719370     0.299860  Biso 1.000000     O
    O   1.0     0.140358     0.298835     0.356412  Biso 1.000000     O
    O   1.0     0.140279     0.799825     0.356477  Biso 1.000000     O
    O   1.0     0.640350     0.298835     0.356412  Biso 1.000000     O
    O   1.0     0.640272     0.799825     0.356477  Biso 1.000000     O
    O   1.0     0.455705     0.098424     0.331239  Biso 1.000000     O
    O   1.0     0.455803     0.597748     0.331134  Biso 1.000000     O
    O   1.0     0.955697     0.098424     0.331239  Biso 1.000000     O
    O   1.0     0.955794     0.597749     0.331134  Biso 1.000000     O
    O   1.0     0.414552     0.162412     0.237523  Biso 1.000000     O
    O   1.0     0.414859     0.662194     0.237693  Biso 1.000000     O
    O   1.0     0.914544     0.162412     0.237523  Biso 1.000000     O
    O   1.0     0.914851     0.662195     0.237693  Biso 1.000000     O
    O   1.0     0.359121     0.077690     0.971347  Biso 1.000000     O
    O   1.0     0.359219     0.578584     0.971384  Biso 1.000000     O
    O   1.0     0.859113     0.077691     0.971347  Biso 1.000000     O
    O   1.0     0.859211     0.578584     0.971383  Biso 1.000000     O
    O   1.0     0.377642     0.474781     0.990659  Biso 1.000000     O
    O   1.0     0.380647     0.974321     0.990900  Biso 1.000000     O
    O   1.0     0.877634     0.474781     0.990658  Biso 1.000000     O
    O   1.0     0.880640     0.974321     0.990900  Biso 1.000000     O
    O   1.0     0.219191     0.165787     0.292846  Biso 1.000000     O
    O   1.0     0.219133     0.666614     0.293041  Biso 1.000000     O
    O   1.0     0.719183     0.165787     0.292846  Biso 1.000000     O
    O   1.0     0.719126     0.666614     0.293040  Biso 1.000000     O
    O   1.0     0.207516     0.192414     0.171852  Biso 1.000000     O
    O   1.0     0.207596     0.693216     0.172046  Biso 1.000000     O
    O   1.0     0.707509     0.192414     0.171852  Biso 1.000000     O
    O   1.0     0.707588     0.693216     0.172046  Biso 1.000000     O
    O   1.0     0.132861     0.043103     0.285289  Biso 1.000000     O
    O   1.0     0.132529     0.543777     0.285260  Biso 1.000000     O
    O   1.0     0.632853     0.043103     0.285289  Biso 1.000000     O
    O   1.0     0.632523     0.543776     0.285259  Biso 1.000000     O
    O   1.0     0.214476     0.469267     0.200682  Biso 1.000000     O
    O   1.0     0.214524     0.968744     0.200449  Biso 1.000000     O
    O   1.0     0.714468     0.469267     0.200680  Biso 1.000000     O
    O   1.0     0.714515     0.968745     0.200448  Biso 1.000000     O
    O   1.0     0.111574     0.049300     0.143808  Biso 1.000000     O
    O   1.0     0.111434     0.549422     0.143671  Biso 1.000000     O
    O   1.0     0.611566     0.049303     0.143807  Biso 1.000000     O
    O   1.0     0.611426     0.549422     0.143671  Biso 1.000000     O
    P   1.0     0.421270     0.214565     0.706847  Biso 1.000000     P
    P   1.0     0.421262     0.715180     0.706980  Biso 1.000000     P
    P   1.0     0.921263     0.214565     0.706847  Biso 1.000000     P
    P   1.0     0.921254     0.715180     0.706980  Biso 1.000000     P
    P   1.0     0.327111     0.464700     0.792841  Biso 1.000000     P
    P   1.0     0.326899     0.965209     0.792921  Biso 1.000000     P
    P   1.0     0.827103     0.464700     0.792840  Biso 1.000000     P
    P   1.0     0.826892     0.965210     0.792920  Biso 1.000000     P
    P   1.0     0.078730     0.284827     0.293037  Biso 1.000000     P
    P   1.0     0.078719     0.785440     0.293170  Biso 1.000000     P
    P   1.0     0.578722     0.284827     0.293037  Biso 1.000000     P
    P   1.0     0.578711     0.785439     0.293170  Biso 1.000000     P
    P   1.0     0.173091     0.034797     0.207097  Biso 1.000000     P
    P   1.0     0.172883     0.535307     0.207171  Biso 1.000000     P
    P   1.0     0.673083     0.034798     0.207097  Biso 1.000000     P
    P   1.0     0.672875     0.535307     0.207170  Biso 1.000000     P
   Ca   1.0     0.345141     0.117997     0.854444  Biso 1.000000    Ca
   Ca   1.0     0.344962     0.617949     0.854063  Biso 1.000000    Ca
   Ca   1.0     0.845133     0.117997     0.854444  Biso 1.000000    Ca
   Ca   1.0     0.844954     0.617949     0.854063  Biso 1.000000    Ca
   Ca   1.0     0.403258     0.367864     0.645498  Biso 1.000000    Ca
   Ca   1.0     0.403144     0.868404     0.645610  Biso 1.000000    Ca
   Ca   1.0     0.903251     0.367864     0.645497  Biso 1.000000    Ca
   Ca   1.0     0.903136     0.868404     0.645610  Biso 1.000000    Ca
   Ca   1.0     0.155029     0.382057     0.145949  Biso 1.000000    Ca
   Ca   1.0     0.154848     0.882009     0.145574  Biso 1.000000    Ca
   Ca   1.0     0.655021     0.382056     0.145949  Biso 1.000000    Ca
   Ca   1.0     0.654840     0.882009     0.145573  Biso 1.000000    Ca
   Ca   1.0     0.096847     0.131602     0.354408  Biso 1.000000    Ca
   Ca   1.0     0.096734     0.632139     0.354518  Biso 1.000000    Ca
   Ca   1.0     0.596839     0.131602     0.354407  Biso 1.000000    Ca
   Ca   1.0     0.596727     0.632139     0.354517  Biso 1.000000    Ca
