#======================================================================

# CRYSTAL DATA

#----------------------------------------------------------------------

data_VESTA_phase_1


_pd_phase_name                         MOF
_cell_length_a                         7.96200
_cell_length_b                         14.33200
_cell_length_c                         14.57100
_cell_angle_alpha                      89.46900
_cell_angle_beta                       94.32200
_cell_angle_gamma                      90.81500
_symmetry_space_group_name_H-M         "P 1"
_symmetry_Int_Tables_number            1

loop_
_symmetry_equiv_pos_as_xyz
   "x, y, z"

loop_
   _atom_site_label
   _atom_site_occupancy
   _atom_site_fract_x
   _atom_site_fract_y
   _atom_site_fract_z
   _atom_site_adp_type
   _atom_site_B_iso_or_equiv
   _atom_site_type_symbol
    H   1.0     0.200644     0.604562     0.220268  Biso 1.000000     H
    H   1.0     0.696129     0.610142     0.225294  Biso 1.000000     H
    H   1.0     0.091091     0.718214     0.098048  Biso 1.000000     H
    H   1.0     0.588579     0.722488     0.101352  Biso 1.000000     H
    H   1.0    -0.101091     0.880996     0.311779  Biso 1.000000     H
    H   1.0     0.391992     0.887544     0.312089  Biso 1.000000     H
    H   1.0     0.011814     0.759631     0.426153  Biso 1.000000     H
    H   1.0     0.500924     0.766661     0.428094  Biso 1.000000     H
    H   1.0     0.297477     0.110738     0.274286  Biso 1.000000     H
    H   1.0     0.790859     0.102984     0.277772  Biso 1.000000     H
    H   1.0     0.406638     0.222091     0.398067  Biso 1.000000     H
    H   1.0     0.902894     0.215886     0.399601  Biso 1.000000     H
    H   1.0     0.618762     0.388783     0.188197  Biso 1.000000     H
    H   1.0     0.000000     0.380457     0.185906  Biso 1.000000     H
    H   1.0     0.507781     0.268687     0.072357  Biso 1.000000     H
    H   1.0     0.992882     0.259366     0.072100  Biso 1.000000     H
    H   1.0     0.301907     0.389733     0.775307  Biso 1.000000     H
    H   1.0     0.797414     0.395417     0.780309  Biso 1.000000     H
    H   1.0     0.411296     0.277624     0.899002  Biso 1.000000     H
    H   1.0     0.908654     0.281966     0.902294  Biso 1.000000     H
    H   1.0     0.605187     0.112384     0.687581  Biso 1.000000     H
    H   1.0     0.000000     0.118947     0.687921  Biso 1.000000     H
    H   1.0     0.494359     0.232992     0.571795  Biso 1.000000     H
    H   1.0     0.983373     0.240045     0.573765  Biso 1.000000     H
    H   1.0     0.203581     0.896748     0.722041  Biso 1.000000     H
    H   1.0     0.697100     0.889036     0.725319  Biso 1.000000     H
    H   1.0     0.090051     0.784045     0.600409  Biso 1.000000     H
    H   1.0     0.586328     0.777887     0.601735  Biso 1.000000     H
    H   1.0    -0.112548     0.619301     0.814663  Biso 1.000000     H
    H   1.0     0.376395     0.611077     0.812216  Biso 1.000000     H
    H   1.0     0.003837     0.740167     0.928303  Biso 1.000000     H
    H   1.0     0.489043     0.730934     0.927885  Biso 1.000000     H
    C   1.0     0.133488     0.666970     0.237797  Biso 1.000000     C
    C   1.0     0.628020     0.672591     0.241699  Biso 1.000000     C
    C   1.0     0.072442     0.729706     0.170286  Biso 1.000000     C
    C   1.0     0.568139     0.734606     0.173273  Biso 1.000000     C
    C   1.0    -0.013426     0.808505     0.196123  Biso 1.000000     C
    C   1.0     0.481885     0.813740     0.197816  Biso 1.000000     C
    C   1.0    -0.033236     0.820728     0.289804  Biso 1.000000     C
    C   1.0     0.459821     0.826848     0.291131  Biso 1.000000     C
    C   1.0     0.030024     0.754236     0.352955  Biso 1.000000     C
    C   1.0     0.521235     0.760755     0.355197  Biso 1.000000     C
    C   1.0     0.407204     0.881290     0.126286  Biso 1.000000     C
    C   1.0     0.908010     0.875792     0.125479  Biso 1.000000     C
    C   1.0     0.369449     0.173253     0.257984  Biso 1.000000     C
    C   1.0     0.861589     0.165528     0.260158  Biso 1.000000     C
    C   1.0     0.430216     0.234745     0.326368  Biso 1.000000     C
    C   1.0     0.923908     0.227879     0.327464  Biso 1.000000     C
    C   1.0     0.521246     0.314107     0.302060  Biso 1.000000     C
    C   1.0     0.000000     0.307120     0.301498  Biso 1.000000     C
    C   1.0     0.547196     0.327908     0.209000  Biso 1.000000     C
    C   1.0     0.000000     0.319891     0.207973  Biso 1.000000     C
    C   1.0     0.484654     0.262237     0.144993  Biso 1.000000     C
    C   1.0     0.972205     0.253636     0.145096  Biso 1.000000     C
    C   1.0     0.091864     0.374710     0.371898  Biso 1.000000     C
    C   1.0     0.596441     0.381150     0.373808  Biso 1.000000     C
    C   1.0     0.369843     0.327294     0.758688  Biso 1.000000     C
    C   1.0     0.864325     0.332995     0.762579  Biso 1.000000     C
    C   1.0     0.430784     0.265410     0.826981  Biso 1.000000     C
    C   1.0     0.926343     0.270381     0.829961  Biso 1.000000     C
    C   1.0     0.516789     0.186269     0.802196  Biso 1.000000     C
    C   1.0     0.000000     0.191560     0.803892  Biso 1.000000     C
    C   1.0     0.537594     0.173076     0.708757  Biso 1.000000     C
    C   1.0     0.000000     0.179224     0.710101  Biso 1.000000     C
    C   1.0     0.475113     0.239015     0.644809  Biso 1.000000     C
    C   1.0     0.966219     0.245568     0.647068  Biso 1.000000     C
    C   1.0     0.091203     0.124334     0.874385  Biso 1.000000     C
    C   1.0     0.592316     0.118773     0.873563  Biso 1.000000     C
    C   1.0     0.132994     0.834214     0.739830  Biso 1.000000     C
    C   1.0     0.625246     0.826539     0.741807  Biso 1.000000     C
    C   1.0     0.069827     0.771967     0.672630  Biso 1.000000     C
    C   1.0     0.563524     0.765171     0.673526  Biso 1.000000     C
    C   1.0    -0.019775     0.692739     0.698789  Biso 1.000000     C
    C   1.0     0.472702     0.685801     0.698042  Biso 1.000000     C
    C   1.0    -0.041729     0.679872     0.792422  Biso 1.000000     C
    C   1.0     0.447769     0.671947     0.791218  Biso 1.000000     C
    C   1.0     0.023622     0.746007     0.855208  Biso 1.000000     C
    C   1.0     0.511260     0.737478     0.855138  Biso 1.000000     C
    C   1.0     0.396601     0.618878     0.626398  Biso 1.000000     C
    C   1.0     0.901296     0.625218     0.628508  Biso 1.000000     C
    N   1.0     0.112716     0.678089     0.328104  Biso 1.000000     N
    N   1.0     0.604934     0.684482     0.331671  Biso 1.000000     N
    N   1.0     0.396252     0.185776     0.168280  Biso 1.000000     N
    N   1.0     0.885115     0.177295     0.170004  Biso 1.000000     N
    N   1.0     0.391608     0.315281     0.668571  Biso 1.000000     N
    N   1.0     0.883773     0.321730     0.672140  Biso 1.000000     N
    N   1.0     0.110542     0.822353     0.830107  Biso 1.000000     N
    N   1.0     0.599518     0.813932     0.831646  Biso 1.000000     N
    O   1.0     0.347621     0.955536     0.156259  Biso 1.000000     O
    O   1.0     0.843812     0.948383     0.156472  Biso 1.000000     O
    O   1.0     0.407279     0.855971     0.042517  Biso 1.000000     O
    O   1.0     0.908898     0.851817     0.041473  Biso 1.000000     O
    O   1.0     0.156394     0.448676     0.340639  Biso 1.000000     O
    O   1.0     0.658986     0.456284     0.344001  Biso 1.000000     O
    O   1.0     0.089482     0.349647     0.456004  Biso 1.000000     O
    O   1.0     0.593081     0.354623     0.457489  Biso 1.000000     O
    O   1.0     0.155943     0.051961     0.843338  Biso 1.000000     O
    O   1.0     0.652064     0.044617     0.843546  Biso 1.000000     O
    O   1.0     0.090131     0.148169     0.958441  Biso 1.000000     O
    O   1.0     0.592422     0.144049     0.957372  Biso 1.000000     O
    O   1.0     0.333952     0.543795     0.656208  Biso 1.000000     O
    O   1.0     0.836628     0.551318     0.659774  Biso 1.000000     O
    O   1.0     0.399823     0.645400     0.542689  Biso 1.000000     O
    O   1.0     0.903343     0.650347     0.544391  Biso 1.000000     O
   Ag   1.0     0.235223     0.569467     0.434833  Biso 1.000000    Ag
   Ag   1.0     0.729872     0.577726     0.438840  Biso 1.000000    Ag
   Ag   1.0     0.273285     0.078092     0.061661  Biso 1.000000    Ag
   Ag   1.0     0.761122     0.068924     0.063051  Biso 1.000000    Ag
   Ag   1.0     0.264565     0.421502     0.561718  Biso 1.000000    Ag
   Ag   1.0     0.759037     0.429783     0.565712  Biso 1.000000    Ag
   Ag   1.0     0.236780     0.930358     0.936553  Biso 1.000000    Ag
   Ag   1.0     0.724401     0.921149     0.937975  Biso 1.000000    Ag
