#======================================================================

# CRYSTAL DATA

#----------------------------------------------------------------------

data_VESTA_phase_1


_pd_phase_name                         MOF
_cell_length_a                         7.98300
_cell_length_b                         14.45300
_cell_length_c                         14.44100
_cell_angle_alpha                      89.78600
_cell_angle_beta                       85.67900
_cell_angle_gamma                      89.65400
_symmetry_space_group_name_H-M         "P 1"
_symmetry_Int_Tables_number            1

loop_
_symmetry_equiv_pos_as_xyz
   "x, y, z"

loop_
   _atom_site_label
   _atom_site_occupancy
   _atom_site_fract_x
   _atom_site_fract_y
   _atom_site_fract_z
   _atom_site_adp_type
   _atom_site_B_iso_or_equiv
   _atom_site_type_symbol
    H   1.0    -0.107523     0.616232     0.687598  Biso 1.000000     H
    H   1.0     0.395467     0.622417     0.684194  Biso 1.000000     H
    H   1.0     0.002329     0.737565     0.572639  Biso 1.000000     H
    H   1.0     0.510909     0.744467     0.571716  Biso 1.000000     H
    H   1.0     0.201303     0.889548     0.779661  Biso 1.000000     H
    H   1.0     0.708080     0.891779     0.782638  Biso 1.000000     H
    H   1.0     0.093512     0.776537     0.902726  Biso 1.000000     H
    H   1.0     0.593786     0.778169     0.903403  Biso 1.000000     H
    H   1.0     0.608430     0.121014     0.815694  Biso 1.000000     H
    H   1.0     0.000000     0.116429     0.812676  Biso 1.000000     H
    H   1.0     0.492771     0.243064     0.928068  Biso 1.000000     H
    H   1.0     0.999130     0.237564     0.927292  Biso 1.000000     H
    H   1.0     0.288564     0.390674     0.717646  Biso 1.000000     H
    H   1.0     0.793026     0.389377     0.720424  Biso 1.000000     H
    H   1.0     0.401822     0.276780     0.597055  Biso 1.000000     H
    H   1.0     0.902623     0.276862     0.597598  Biso 1.000000     H
    H   1.0     0.603624     0.379275     0.316133  Biso 1.000000     H
    H   1.0     0.000000     0.383502     0.312315  Biso 1.000000     H
    H   1.0     0.488091     0.257193     0.428570  Biso 1.000000     H
    H   1.0     0.995695     0.262415     0.427099  Biso 1.000000     H
    H   1.0     0.292172     0.109571     0.217490  Biso 1.000000     H
    H   1.0     0.795300     0.111386     0.219845  Biso 1.000000     H
    H   1.0     0.405351     0.223625     0.096875  Biso 1.000000     H
    H   1.0     0.904939     0.224005     0.096919  Biso 1.000000     H
    H   1.0    -0.112283     0.883820     0.187511  Biso 1.000000     H
    H   1.0     0.388946     0.878180     0.184087  Biso 1.000000     H
    H   1.0    -0.002181     0.762574     0.072678  Biso 1.000000     H
    H   1.0     0.505431     0.756423     0.071629  Biso 1.000000     H
    H   1.0     0.203045     0.609978     0.279277  Biso 1.000000     H
    H   1.0     0.709384     0.608699     0.282096  Biso 1.000000     H
    H   1.0     0.095081     0.722815     0.402251  Biso 1.000000     H
    H   1.0     0.594406     0.722005     0.402822  Biso 1.000000     H
    C   1.0     0.405784     0.623738     0.872371  Biso 1.000000     C
    C   1.0     0.908255     0.620123     0.875179  Biso 1.000000     C
    C   1.0    -0.015805     0.687680     0.804057  Biso 1.000000     C
    C   1.0     0.485782     0.691363     0.802513  Biso 1.000000     C
    C   1.0    -0.038562     0.675957     0.709736  Biso 1.000000     C
    C   1.0     0.465254     0.681223     0.707762  Biso 1.000000     C
    C   1.0     0.023261     0.742315     0.646224  Biso 1.000000     C
    C   1.0     0.530369     0.747976     0.645565  Biso 1.000000     C
    C   1.0     0.132012     0.828044     0.762040  Biso 1.000000     C
    C   1.0     0.637970     0.831085     0.763557  Biso 1.000000     C
    C   1.0     0.071966     0.765621     0.830058  Biso 1.000000     C
    C   1.0     0.574476     0.768263     0.830303  Biso 1.000000     C
    C   1.0     0.091550     0.120312     0.625074  Biso 1.000000     C
    C   1.0     0.594036     0.122405     0.627727  Biso 1.000000     C
    C   1.0     0.514033     0.189982     0.697641  Biso 1.000000     C
    C   1.0     0.000000     0.187844     0.696179  Biso 1.000000     C
    C   1.0     0.536865     0.179835     0.792239  Biso 1.000000     C
    C   1.0     0.000000     0.176110     0.790439  Biso 1.000000     C
    C   1.0     0.471820     0.246630     0.854371  Biso 1.000000     C
    C   1.0     0.976892     0.242346     0.853829  Biso 1.000000     C
    C   1.0     0.360196     0.329906     0.736680  Biso 1.000000     C
    C   1.0     0.864325     0.328014     0.738109  Biso 1.000000     C
    C   1.0     0.423171     0.266945     0.670000  Biso 1.000000     C
    C   1.0     0.925286     0.265791     0.670202  Biso 1.000000     C
    C   1.0     0.091384     0.379985     0.124633  Biso 1.000000     C
    C   1.0     0.593702     0.377866     0.127820  Biso 1.000000     C
    C   1.0     0.513480     0.310359     0.197752  Biso 1.000000     C
    C   1.0     0.000000     0.312506     0.195691  Biso 1.000000     C
    C   1.0     0.533928     0.320454     0.292527  Biso 1.000000     C
    C   1.0     0.000000     0.324023     0.290055  Biso 1.000000     C
    C   1.0     0.468904     0.253639     0.354691  Biso 1.000000     C
    C   1.0     0.974763     0.257807     0.353503  Biso 1.000000     C
    C   1.0     0.361884     0.170386     0.236644  Biso 1.000000     C
    C   1.0     0.865327     0.172587     0.237573  Biso 1.000000     C
    C   1.0     0.424887     0.233411     0.169962  Biso 1.000000     C
    C   1.0     0.926322     0.234847     0.169623  Biso 1.000000     C
    C   1.0     0.402363     0.876347     0.372178  Biso 1.000000     C
    C   1.0     0.907558     0.879849     0.374913  Biso 1.000000     C
    C   1.0    -0.017207     0.812096     0.303789  Biso 1.000000     C
    C   1.0     0.482741     0.808979     0.302175  Biso 1.000000     C
    C   1.0    -0.041957     0.823947     0.209603  Biso 1.000000     C
    C   1.0     0.460459     0.819337     0.207547  Biso 1.000000     C
    C   1.0     0.020099     0.757665     0.146126  Biso 1.000000     C
    C   1.0     0.526169     0.752760     0.145347  Biso 1.000000     C
    C   1.0     0.132313     0.671583     0.261707  Biso 1.000000     C
    C   1.0     0.637551     0.669401     0.263086  Biso 1.000000     C
    C   1.0     0.072106     0.733895     0.329694  Biso 1.000000     C
    C   1.0     0.573661     0.732042     0.329826  Biso 1.000000     C
    N   1.0     0.107894     0.817618     0.671154  Biso 1.000000     N
    N   1.0     0.616273     0.822128     0.672238  Biso 1.000000     N
    N   1.0     0.384146     0.320950     0.827816  Biso 1.000000     N
    N   1.0     0.889787     0.317531     0.828924  Biso 1.000000     N
    N   1.0     0.383633     0.179265     0.327971  Biso 1.000000     N
    N   1.0     0.889213     0.182850     0.328514  Biso 1.000000     N
    N   1.0     0.106573     0.682224     0.170952  Biso 1.000000     N
    N   1.0     0.614128     0.678535     0.171899  Biso 1.000000     N
    O   1.0     0.347449     0.550334     0.839919  Biso 1.000000     O
    O   1.0     0.845342     0.547464     0.843870  Biso 1.000000     O
    O   1.0     0.400355     0.648434     0.957227  Biso 1.000000     O
    O   1.0     0.910689     0.643945     0.960128  Biso 1.000000     O
    O   1.0     0.155032     0.047168     0.656431  Biso 1.000000     O
    O   1.0     0.659734     0.050454     0.660342  Biso 1.000000     O
    O   1.0     0.088657     0.144493     0.540093  Biso 1.000000     O
    O   1.0     0.592335     0.145579     0.542525  Biso 1.000000     O
    O   1.0     0.154527     0.452555     0.156046  Biso 1.000000     O
    O   1.0     0.659120     0.449288     0.160301  Biso 1.000000     O
    O   1.0     0.089165     0.356270     0.039654  Biso 1.000000     O
    O   1.0     0.592471     0.355084     0.042638  Biso 1.000000     O
    O   1.0     0.340597     0.949537     0.339818  Biso 1.000000     O
    O   1.0     0.844552     0.953096     0.343583  Biso 1.000000     O
    O   1.0     0.400234     0.851720     0.457130  Biso 1.000000     O
    O   1.0     0.910908     0.855693     0.459901  Biso 1.000000     O
   Ag   1.0     0.261566     0.430450     0.933548  Biso 1.000000    Ag
   Ag   1.0     0.770380     0.425378     0.937089  Biso 1.000000    Ag
   Ag   1.0     0.226578     0.925113     0.562729  Biso 1.000000    Ag
   Ag   1.0     0.742961     0.930687     0.566860  Biso 1.000000    Ag
   Ag   1.0     0.226382     0.574976     0.062430  Biso 1.000000    Ag
   Ag   1.0     0.740685     0.569711     0.066770  Biso 1.000000    Ag
   Ag   1.0     0.259018     0.070010     0.433300  Biso 1.000000    Ag
   Ag   1.0     0.770150     0.075222     0.436680  Biso 1.000000    Ag
