#======================================================================

# CRYSTAL DATA

#----------------------------------------------------------------------

data_VESTA_phase_1


_pd_phase_name                         MOF
_cell_length_a                         13.24500
_cell_length_b                         13.25000
_cell_length_c                         15.67200
_cell_angle_alpha                      83.22200
_cell_angle_beta                       67.93300
_cell_angle_gamma                      84.47600
_symmetry_space_group_name_H-M         "P 1"
_symmetry_Int_Tables_number            1

loop_
_symmetry_equiv_pos_as_xyz
   "x, y, z"

loop_
   _atom_site_label
   _atom_site_occupancy
   _atom_site_fract_x
   _atom_site_fract_y
   _atom_site_fract_z
   _atom_site_adp_type
   _atom_site_B_iso_or_equiv
   _atom_site_type_symbol
    H   1.0     0.906576     0.021240     0.844481  Biso 1.000000     H
    H   1.0     0.402623     0.684542     0.192000  Biso 1.000000     H
    H   1.0     0.295573     0.805611     0.306534  Biso 1.000000     H
    H   1.0     0.009050     0.409985     0.028402  Biso 1.000000     H
    H   1.0     0.551499     0.604374     0.097057  Biso 1.000000     H
    H   1.0     0.866547     0.185730     0.917846  Biso 1.000000     H
    H   1.0     0.089429     0.473098     0.862041  Biso 1.000000     H
    H   1.0     0.297880     0.525070     0.573433  Biso 1.000000     H
    H   1.0     0.311816     0.440885     0.052821  Biso 1.000000     H
    H   1.0     0.092991     0.206860     0.536130  Biso 1.000000     H
    H   1.0     0.072221     0.020814     0.550598  Biso 1.000000     H
    H   1.0     0.920702     0.469200     0.489787  Biso 1.000000     H
    H   1.0     0.383927     0.685138     0.927222  Biso 1.000000     H
    H   1.0     0.392649     0.598681     0.415512  Biso 1.000000     H
    H   1.0     0.990906     0.590030     0.971600  Biso 1.000000     H
    H   1.0     0.205091     0.680242     0.909566  Biso 1.000000     H
    H   1.0     0.798538     0.506523     0.647678  Biso 1.000000     H
    H   1.0     0.702071     0.474932     0.426566  Biso 1.000000     H
    H   1.0     0.283683     0.223520     0.011429  Biso 1.000000     H
    H   1.0     0.062958     0.369606     0.611239  Biso 1.000000     H
    H   1.0     0.201406     0.493489     0.352327  Biso 1.000000     H
    H   1.0     0.597326     0.315466     0.808000  Biso 1.000000     H
    H   1.0     0.567222     0.701936     0.542565  Biso 1.000000     H
    H   1.0     0.716271     0.776489     0.988571  Biso 1.000000     H
    H   1.0     0.906965     0.793161     0.463870  Biso 1.000000     H
    H   1.0     0.936994     0.630414     0.388761  Biso 1.000000     H
    H   1.0     0.120050     0.626344     0.097581  Biso 1.000000     H
    H   1.0     0.253907     0.296280     0.439993  Biso 1.000000     H
    H   1.0     0.363904     0.702361     0.614293  Biso 1.000000     H
    H   1.0     0.452037     0.369764     0.714766  Biso 1.000000     H
    H   1.0     0.628026     0.729705     0.157150  Biso 1.000000     H
    H   1.0     0.731456     0.495961     0.800454  Biso 1.000000     H
    H   1.0     0.910524     0.526911     0.137960  Biso 1.000000     H
    H   1.0     0.133400     0.814290     0.082153  Biso 1.000000     H
    H   1.0     0.166437     0.829504     0.467470  Biso 1.000000     H
    H   1.0     0.794869     0.319765     0.090435  Biso 1.000000     H
    H   1.0     0.093382     0.978778     0.155519  Biso 1.000000     H
    H   1.0     0.688133     0.559121     0.947183  Biso 1.000000     H
    H   1.0     0.607301     0.401320     0.584486  Biso 1.000000     H
    H   1.0     0.547913     0.630237     0.285233  Biso 1.000000     H
    H   1.0     0.414286     0.299628     0.145355  Biso 1.000000     H
    H   1.0     0.746055     0.703732     0.560009  Biso 1.000000     H
    H   1.0     0.879894     0.373677     0.902419  Biso 1.000000     H
    H   1.0     0.833523     0.170511     0.532528  Biso 1.000000     H
    H   1.0     0.268493     0.504045     0.199551  Biso 1.000000     H
    H   1.0     0.371923     0.270299     0.842849  Biso 1.000000     H
    H   1.0     0.079247     0.530817     0.510219  Biso 1.000000     H
    H   1.0     0.927747     0.979204     0.449403  Biso 1.000000     H
    H   1.0     0.636057     0.297647     0.385708  Biso 1.000000     H
    H   1.0     0.585672     0.700380     0.854647  Biso 1.000000     H
    H   1.0     0.230841     0.465798     0.714127  Biso 1.000000     H
    H   1.0     0.448450     0.395631     0.902947  Biso 1.000000     H
    H   1.0     0.432741     0.298068     0.457436  Biso 1.000000     H
    H   1.0     0.616033     0.314864     0.072780  Biso 1.000000     H
    H   1.0     0.769110     0.534208     0.285873  Biso 1.000000     H
    H   1.0     0.704382     0.194398     0.693463  Biso 1.000000     H
    C   1.0     0.954622     0.169522     0.771794  Biso 1.000000     C
    C   1.0     0.554544     0.543593     0.408253  Biso 1.000000     C
    C   1.0     0.579394     0.472116     0.914800  Biso 1.000000     C
    C   1.0     0.605433     0.533549     0.970519  Biso 1.000000     C
    C   1.0     0.620497     0.310849     0.141234  Biso 1.000000     C
    C   1.0     0.756582     0.721952     0.024914  Biso 1.000000     C
    C   1.0     0.091061     0.773937     0.149400  Biso 1.000000     C
    C   1.0     0.215737     0.296738     0.280847  Biso 1.000000     C
    C   1.0     0.019969     0.328726     0.677866  Biso 1.000000     C
    C   1.0     0.477818     0.696375     0.779755  Biso 1.000000     C
    C   1.0     0.127354     0.589672     0.461690  Biso 1.000000     C
    C   1.0     0.527410     0.301052     0.310400  Biso 1.000000     C
    C   1.0     0.083228     0.670195     0.157435  Biso 1.000000     C
    C   1.0     0.559995     0.444516     0.547232  Biso 1.000000     C
    C   1.0     0.166591     0.690929     0.750089  Biso 1.000000     C
    C   1.0     0.908890     0.226083     0.850599  Biso 1.000000     C
    C   1.0     0.329578     0.297224     0.379748  Biso 1.000000     C
    C   1.0     0.394968     0.411699     0.686094  Biso 1.000000     C
    C   1.0     0.661970     0.447604     0.826772  Biso 1.000000     C
    C   1.0     0.021886     0.503923     0.253021  Biso 1.000000     C
    C   1.0     0.018912     0.103282     0.291958  Biso 1.000000     C
    C   1.0     0.872596     0.410343     0.538314  Biso 1.000000     C
    C   1.0     0.979985     0.671292     0.322134  Biso 1.000000     C
    C   1.0     0.274732     0.691874     0.760157  Biso 1.000000     C
    C   1.0     0.675864     0.703250     0.709089  Biso 1.000000     C
    C   1.0     0.292712     0.306248     0.881303  Biso 1.000000     C
    C   1.0     0.833370     0.309088     0.249912  Biso 1.000000     C
    C   1.0     0.660566     0.370517     0.777693  Biso 1.000000     C
    C   1.0     0.670384     0.702784     0.620254  Biso 1.000000     C
    C   1.0     0.946460     0.063039     0.777572  Biso 1.000000     C
    C   1.0     0.369437     0.698312     0.682208  Biso 1.000000     C
    C   1.0     0.196207     0.569849     0.373304  Biso 1.000000     C
    C   1.0     0.751000     0.257692     0.650805  Biso 1.000000     C
    C   1.0     0.280605     0.686169     0.849334  Biso 1.000000     C
    C   1.0     0.240426     0.380143     0.836837  Biso 1.000000     C
    C   1.0     0.916727     0.329825     0.842565  Biso 1.000000     C
    C   1.0     0.571295     0.701730     0.610834  Biso 1.000000     C
    C   1.0     0.630525     0.301696     0.317792  Biso 1.000000     C
    C   1.0     0.784221     0.703261     0.719162  Biso 1.000000     C
    C   1.0     0.379463     0.689154     0.858767  Biso 1.000000     C
    C   1.0     0.712069     0.579276     0.259194  Biso 1.000000     C
    C   1.0     0.260634     0.647027     0.313918  Biso 1.000000     C
    C   1.0     0.053029     0.166524     0.603860  Biso 1.000000     C
    C   1.0     0.439956     0.555488     0.452768  Biso 1.000000     C
    C   1.0     0.972956     0.382493     0.755384  Biso 1.000000     C
    C   1.0     0.011053     0.989882     0.300661  Biso 1.000000     C
    C   1.0     0.419312     0.299375     0.213142  Biso 1.000000     C
    C   1.0     0.420554     0.527890     0.085204  Biso 1.000000     C
    C   1.0     0.759524     0.619863     0.163162  Biso 1.000000     C
    C   1.0     0.739316     0.352983     0.686083  Biso 1.000000     C
    C   1.0     0.472092     0.439768     0.946063  Biso 1.000000     C
    C   1.0     0.337980     0.552401     0.173232  Biso 1.000000     C
    C   1.0     0.803741     0.430164     0.626699  Biso 1.000000     C
    C   1.0     0.981007     0.896741     0.708042  Biso 1.000000     C
    C   1.0     0.719355     0.313841     0.150667  Biso 1.000000     C
    C   1.0     0.090427     0.383470     0.984663  Biso 1.000000     C
    C   1.0     0.324096     0.296772     0.290912  Biso 1.000000     C
    C   1.0     0.580649     0.700631     0.786860  Biso 1.000000     C
    C   1.0     0.613671     0.486846     0.458019  Biso 1.000000     C
    C   1.0     0.386280     0.513157     0.541981  Biso 1.000000     C
    C   1.0     0.287881     0.420729     0.740806  Biso 1.000000     C
    C   1.0     0.053496     0.936978     0.222427  Biso 1.000000     C
    C   1.0     0.707239     0.693759     0.118697  Biso 1.000000     C
    C   1.0     0.248955     0.742318     0.349194  Biso 1.000000     C
    C   1.0     0.428667     0.298274     0.389168  Biso 1.000000     C
    C   1.0     0.135235     0.416771     0.891790  Biso 1.000000     C
    C   1.0     0.725230     0.308132     0.239844  Biso 1.000000     C
    C   1.0     0.472551     0.698954     0.689602  Biso 1.000000     C
    C   1.0     0.339383     0.629490     0.222308  Biso 1.000000     C
    C   1.0     0.864719     0.583239     0.108211  Biso 1.000000     C
    C   1.0     0.394516     0.466455     0.029485  Biso 1.000000     C
    C   1.0     0.527857     0.560236     0.053942  Biso 1.000000     C
    C   1.0     0.988951     0.010131     0.699342  Biso 1.000000     C
    C   1.0     0.522144     0.303626     0.220247  Biso 1.000000     C
    C   1.0     0.041398     0.063320     0.611517  Biso 1.000000     C
    C   1.0     0.445407     0.456408     0.591746  Biso 1.000000     C
    C   1.0     0.958558     0.936702     0.388481  Biso 1.000000     C
    C   1.0     0.822526     0.243397     0.561523  Biso 1.000000     C
    C   1.0     0.909528     0.616542     0.015338  Biso 1.000000     C
    C   1.0     0.026963     0.617531     0.244609  Biso 1.000000     C
    C   1.0     0.604983     0.588305     0.313906  Biso 1.000000     C
    C   1.0     0.010828     0.222456     0.683200  Biso 1.000000     C
    C   1.0     0.978102     0.496092     0.746989  Biso 1.000000     C
    C   1.0     0.243371     0.278057     0.975087  Biso 1.000000     C
    C   1.0     0.045314     0.830498     0.228204  Biso 1.000000     C
    C   1.0     0.946924     0.833498     0.396140  Biso 1.000000     C
    C   1.0     0.989139     0.777561     0.316803  Biso 1.000000     C
    C   1.0     0.177431     0.756617     0.438476  Biso 1.000000     C
    N   1.0     0.117582     0.681312     0.494995  Biso 1.000000     N
    N   1.0     0.882375     0.318704     0.505006  Biso 1.000000     N
    N   1.0     0.856246     0.683490     0.972571  Biso 1.000000     N
    N   1.0     0.143711     0.316524     0.027430  Biso 1.000000     N
    O   1.0     0.009254     0.853391     0.633379  Biso 1.000000     O
    O   1.0     0.916790     0.324379     0.175887  Biso 1.000000     O
    O   1.0     0.783462     0.715827     0.798818  Biso 1.000000     O
    O   1.0     0.947512     0.852569     0.789762  Biso 1.000000     O
    O   1.0     0.869161     0.688255     0.647185  Biso 1.000000     O
    O   1.0     0.990721     0.146627     0.366619  Biso 1.000000     O
    O   1.0     0.130801     0.311763     0.352821  Biso 1.000000     O
    O   1.0     0.963820     0.461319     0.331333  Biso 1.000000     O
    O   1.0     0.834302     0.295225     0.331359  Biso 1.000000     O
    O   1.0     0.052445     0.147449     0.210237  Biso 1.000000     O
    O   1.0     0.036146     0.538699     0.668671  Biso 1.000000     O
    O   1.0     0.076276     0.457888     0.181183  Biso 1.000000     O
    O   1.0     0.216492     0.284189     0.201189  Biso 1.000000     O
    O   1.0     0.923685     0.542131     0.818818  Biso 1.000000     O
    O   1.0     0.083169     0.675647     0.824114  Biso 1.000000     O
    O   1.0     0.165658     0.704803     0.668642  Biso 1.000000     O
   Zn   1.0     0.969128     0.302976     0.367016  Biso 1.000000    Zn
   Zn   1.0     0.030839     0.697042     0.632983  Biso 1.000000    Zn
   Zn   1.0     0.923697     0.700977     0.829561  Biso 1.000000    Zn
   Zn   1.0     0.076265     0.299040     0.170438  Biso 1.000000    Zn
