#======================================================================

# CRYSTAL DATA

#----------------------------------------------------------------------

data_VESTA_phase_1


_pd_phase_name                         MOF
_cell_length_a                         14.79800
_cell_length_b                         18.64100
_cell_length_c                         22.28800
_cell_angle_alpha                      86.67200
_cell_angle_beta                       79.48500
_cell_angle_gamma                      75.82500
_symmetry_space_group_name_H-M         "P 1"
_symmetry_Int_Tables_number            1

loop_
_symmetry_equiv_pos_as_xyz
   "x, y, z"

loop_
   _atom_site_label
   _atom_site_occupancy
   _atom_site_fract_x
   _atom_site_fract_y
   _atom_site_fract_z
   _atom_site_adp_type
   _atom_site_B_iso_or_equiv
   _atom_site_type_symbol
    H   1.0     0.066570     0.909462     0.965917  Biso 1.000000     H
    H   1.0     0.129543     0.736592     0.087740  Biso 1.000000     H
    H   1.0     0.458736     0.869675     0.706610  Biso 1.000000     H
    H   1.0     0.344424     0.255857     0.712427  Biso 1.000000     H
    H   1.0     0.208290     0.469386     0.130980  Biso 1.000000     H
    H   1.0     0.164537     0.862852     0.127725  Biso 1.000000     H
    H   1.0     0.066339     0.231470     0.791403  Biso 1.000000     H
    H   1.0     0.600545     0.499029     0.028410  Biso 1.000000     H
    H   1.0     0.962977     0.870858     0.398314  Biso 1.000000     H
    H   1.0     0.177584     0.319957    -0.014019  Biso 1.000000     H
    H   1.0     0.831629     0.834340     0.530723  Biso 1.000000     H
    H   1.0     0.021771     0.662511     0.065003  Biso 1.000000     H
    H   1.0     0.252101     0.135541     0.996839  Biso 1.000000     H
    H   1.0     0.005183     0.841408     0.287335  Biso 1.000000     H
    H   1.0     0.145577     0.842198     0.981268  Biso 1.000000     H
    H   1.0     0.275729     0.948915     0.523198  Biso 1.000000     H
    H   1.0     0.475326     0.794298     0.757859  Biso 1.000000     H
    H   1.0     0.601861     0.658603     0.159584  Biso 1.000000     H
    H   1.0     0.249465     0.798305     0.420576  Biso 1.000000     H
    H   1.0     0.255117     0.483292     0.786594  Biso 1.000000     H
    H   1.0     0.291372     0.391730     0.726551  Biso 1.000000     H
    H   1.0     0.698355     0.592828     0.751274  Biso 1.000000     H
    H   1.0     0.210378     0.871681     0.492281  Biso 1.000000     H
    H   1.0     0.884867     0.672426     0.887932  Biso 1.000000     H
    H   1.0     0.872935     0.538171     0.739991  Biso 1.000000     H
    H   1.0     0.842516     0.002057     0.639991  Biso 1.000000     H
    H   1.0     0.011121     0.368848     0.804497  Biso 1.000000     H
    H   1.0     0.295551     0.767961     0.310923  Biso 1.000000     H
    H   1.0     0.449832     0.605518     0.000000  Biso 1.000000     H
    H   1.0     0.984252     0.955150     0.637383  Biso 1.000000     H
    H   1.0     0.145551     0.733736     0.784773  Biso 1.000000     H
    H   1.0     0.253350     0.800171     0.819756  Biso 1.000000     H
    H   1.0     0.082936     0.940261     0.693311  Biso 1.000000     H
    H   1.0     0.494821     0.648606     0.969218  Biso 1.000000     H
    H   1.0     0.656923     0.856096     0.569925  Biso 1.000000     H
    H   1.0     0.920156     0.599435     0.105911  Biso 1.000000     H
    H   1.0     0.669346     0.025512     0.675163  Biso 1.000000     H
    H   1.0     0.926375     0.296311     0.103533  Biso 1.000000     H
    H   1.0     0.775078     0.448883     0.023304  Biso 1.000000     H
    H   1.0     0.301435     0.533486     0.862071  Biso 1.000000     H
    H   1.0     0.244892     0.051371     0.910647  Biso 1.000000     H
    H   1.0     0.313201     0.550667     0.145009  Biso 1.000000     H
    H   1.0     0.021651     0.674237     0.824623  Biso 1.000000     H
    H   1.0     0.153493     0.413962     0.060061  Biso 1.000000     H
    H   1.0     0.402023     0.607572     0.893501  Biso 1.000000     H
    H   1.0     0.190778    -0.021453     0.743597  Biso 1.000000     H
    H   1.0     0.151735     0.942642     0.079532  Biso 1.000000     H
    H   1.0     0.979058     0.159862     0.093664  Biso 1.000000     H
    H   1.0     0.379092    -0.019864     0.581619  Biso 1.000000     H
    H   1.0     0.710269     0.718787     0.903813  Biso 1.000000     H
    H   1.0     0.775284     0.610892     0.153717  Biso 1.000000     H
    H   1.0     0.237691     0.074700     0.834502  Biso 1.000000     H
    H   1.0     0.950624     0.023098     0.335484  Biso 1.000000     H
    H   1.0     0.000000     0.289123     0.204175  Biso 1.000000     H
    H   1.0     0.825269     0.493978     0.897818  Biso 1.000000     H
    H   1.0     0.054504     0.803499     0.935132  Biso 1.000000     H
    H   1.0     0.855976     0.643406     0.000000  Biso 1.000000     H
    H   1.0     0.000000     0.121950     0.741460  Biso 1.000000     H
    H   1.0     0.323291     0.244575     0.124984  Biso 1.000000     H
    H   1.0     0.966991     0.053899     0.062878  Biso 1.000000     H
    H   1.0     0.258275     0.352472     0.875079  Biso 1.000000     H
    H   1.0     0.433015     0.464329     0.000000  Biso 1.000000     H
    H   1.0     0.049307     0.008210     0.391411  Biso 1.000000     H
    H   1.0     0.880067     0.549401     0.968734  Biso 1.000000     H
    H   1.0     0.788669     0.911991     0.118148  Biso 1.000000     H
    H   1.0     0.431697     0.304756     0.869215  Biso 1.000000     H
    H   1.0     0.781458     0.827823     0.031955  Biso 1.000000     H
    H   1.0     0.000000     0.300851     0.963795  Biso 1.000000     H
    H   1.0     0.784096     0.165054     0.608219  Biso 1.000000     H
    H   1.0     0.258484     0.514480     0.000000  Biso 1.000000     H
    H   1.0     0.887984     0.121165     0.047528  Biso 1.000000     H
    H   1.0     0.881826     0.020721     0.949263  Biso 1.000000     H
    H   1.0     0.558232     0.169064     0.270936  Biso 1.000000     H
    H   1.0     0.967223     0.731890     0.237392  Biso 1.000000     H
    H   1.0     0.742188     0.571632     0.302245  Biso 1.000000     H
    H   1.0     0.823183     0.091674     0.536516  Biso 1.000000     H
    H   1.0     0.201934     0.129015     0.498071  Biso 1.000000     H
    H   1.0     0.148693     0.290934     0.140866  Biso 1.000000     H
    H   1.0     0.335204     0.370534     0.277523  Biso 1.000000     H
    H   1.0     0.538739     0.314757     0.059577  Biso 1.000000     H
    H   1.0     0.732126     0.429875     0.166725  Biso 1.000000     H
    H   1.0     0.631538     0.355790     0.135294  Biso 1.000000     H
    H   1.0     0.000000     0.594512     0.224298  Biso 1.000000     H
    H   1.0     0.904017     0.226770     0.941056  Biso 1.000000     H
    H   1.0     0.720360     0.412695     0.883787  Biso 1.000000     H
    H   1.0     0.778442     0.480068     0.242204  Biso 1.000000     H
    H   1.0     0.113404     0.363926     0.922888  Biso 1.000000     H
    H   1.0     0.070584     0.092504     0.630481  Biso 1.000000     H
    H   1.0     0.574820     0.093686     0.322184  Biso 1.000000     H
    H   1.0     0.757830     0.014443     0.505597  Biso 1.000000     H
    H   1.0     0.160624     0.425189     0.288807  Biso 1.000000     H
    H   1.0     0.191042     0.961297     0.388805  Biso 1.000000     H
    H   1.0     0.869025     0.100511     0.901070  Biso 1.000000     H
    H   1.0     0.738009     0.195394     0.717873  Biso 1.000000     H
    H   1.0     0.780208     0.163190     0.209040  Biso 1.000000     H
    H   1.0     0.842782     0.984814     0.285198  Biso 1.000000     H
    H   1.0     0.583728     0.357845    -0.007291  Biso 1.000000     H
    H   1.0     0.364211     0.937844     0.353629  Biso 1.000000     H
    H   1.0     0.107186     0.667050     0.925266  Biso 1.000000     H
    H   1.0     0.689138     0.707505     0.316368  Biso 1.000000     H
    H   1.0     0.376638     0.107261     0.458864  Biso 1.000000     H
    H   1.0     0.795869     0.888662     0.194292  Biso 1.000000     H
    H   1.0     0.654467     0.983224     0.447175  Biso 1.000000     H
    H   1.0     0.888007     0.229624     0.244025  Biso 1.000000     H
    C   1.0     0.746462     0.680259     0.867243  Biso 1.000000     C
    C   1.0     0.254374     0.955022     0.572344  Biso 1.000000     C
    C   1.0     0.652082     0.948531     0.624539  Biso 1.000000     C
    C   1.0     0.126039     0.081659     0.016166  Biso 1.000000     C
    C   1.0     0.698583     0.890759     0.584094  Biso 1.000000     C
    C   1.0     0.795427     0.878152     0.563054  Biso 1.000000     C
    C   1.0     0.058352     0.832445     0.316810  Biso 1.000000     C
    C   1.0     0.147174     0.951485     0.666246  Biso 1.000000     C
    C   1.0     0.693310     0.658699     0.828530  Biso 1.000000     C
    C   1.0     0.836962     0.578829     0.775035  Biso 1.000000     C
    C   1.0     0.104472     0.914936     0.570078  Biso 1.000000     C
    C   1.0     0.050631     0.616570     0.811855  Biso 1.000000     C
    C   1.0     0.206750     0.978983     0.695089  Biso 1.000000     C
    C   1.0     0.045578     0.317338     0.046223  Biso 1.000000     C
    C   1.0     0.242627     0.152718     0.746651  Biso 1.000000     C
    C   1.0     0.319893    -0.025918     0.849916  Biso 1.000000     C
    C   1.0     0.221780     0.791315     0.330360  Biso 1.000000     C
    C   1.0     0.201294     0.703446     0.808906  Biso 1.000000     C
    C   1.0     0.042668     0.513026     0.084337  Biso 1.000000     C
    C   1.0     0.136007     0.881803     0.512847  Biso 1.000000     C
    C   1.0     0.548088     0.959263     0.648190  Biso 1.000000     C
    C   1.0     0.590882     0.581674     0.094487  Biso 1.000000     C
    C   1.0     0.951834     0.907841     0.560113  Biso 1.000000     C
    C   1.0     0.738099     0.586579     0.125373  Biso 1.000000     C
    C   1.0     0.084229     0.343580     0.784847  Biso 1.000000     C
    C   1.0     0.739732     0.608266     0.781975  Biso 1.000000     C
    C   1.0     0.994964     0.572273     0.803405  Biso 1.000000     C
    C   1.0     0.013957     0.397505     0.058991  Biso 1.000000     C
    C   1.0     0.016372     0.195033     0.067783  Biso 1.000000     C
    C   1.0     0.031790     0.848861     0.378631  Biso 1.000000     C
    C   1.0     0.271777     0.281102     0.733105  Biso 1.000000     C
    C   1.0     0.589050     0.692269     0.834532  Biso 1.000000     C
    C   1.0     0.183904     0.788642     0.225030  Biso 1.000000     C
    C   1.0     0.844492     0.653964     0.858137  Biso 1.000000     C
    C   1.0     0.352979     0.763511    -0.007843  Biso 1.000000     C
    C   1.0     0.157218     0.209228    -0.001402  Biso 1.000000     C
    C   1.0     0.848860     0.921708     0.583372  Biso 1.000000     C
    C   1.0     0.345314     0.633336     0.868543  Biso 1.000000     C
    C   1.0     0.394923     0.890515     0.795772  Biso 1.000000     C
    C   1.0     0.147891     0.584861     0.806145  Biso 1.000000     C
    C   1.0     0.640672     0.613110     0.129459  Biso 1.000000     C
    C   1.0     0.077855     0.439096     0.066636  Biso 1.000000     C
    C   1.0     0.993135     0.271152     0.074895  Biso 1.000000     C
    C   1.0     0.007706     0.927877     0.593809  Biso 1.000000     C
    C   1.0     0.247048     0.573188     0.128427  Biso 1.000000     C
    C   1.0     0.288902     0.592140     0.850409  Biso 1.000000     C
    C   1.0     0.950108     0.542415     0.091668  Biso 1.000000     C
    C   1.0     0.891038     0.602456     0.812219  Biso 1.000000     C
    C   1.0     0.209068     0.235321     0.751607  Biso 1.000000     C
    C   1.0     0.213582     0.627101     0.820643  Biso 1.000000     C
    C   1.0     0.147558     0.389573     0.768199  Biso 1.000000     C
    C   1.0     0.153964     0.804176     0.291927  Biso 1.000000     C
    C   1.0     0.100055     0.163078     0.028161  Biso 1.000000     C
    C   1.0     0.180299     0.510256     0.790385  Biso 1.000000     C
    C   1.0     0.115666     0.469704     0.781314  Biso 1.000000     C
    C   1.0     0.787480     0.527390     0.086673  Biso 1.000000     C
    C   1.0     0.261108     0.740946     0.828066  Biso 1.000000     C
    C   1.0     0.169491     0.939505     0.603036  Biso 1.000000     C
    C   1.0     0.803264    -0.033522     0.624386  Biso 1.000000     C
    C   1.0     0.195210     0.808727     0.391880  Biso 1.000000     C
    C   1.0     0.084410     0.635318     0.084005  Biso 1.000000     C
    C   1.0     0.639730     0.522504     0.055917  Biso 1.000000     C
    C   1.0     0.736770     0.495336     0.052497  Biso 1.000000     C
    C   1.0     0.114755     0.267375     0.777220  Biso 1.000000     C
    C   1.0     0.070708     0.864795     0.480851  Biso 1.000000     C
    C   1.0     0.251593     0.852632     0.043994  Biso 1.000000     C
    C   1.0     0.189144     0.527973     0.119062  Biso 1.000000     C
    C   1.0     0.241547     0.357160     0.741579  Biso 1.000000     C
    C   1.0     0.131534     0.285238     0.008652  Biso 1.000000     C
    C   1.0     0.099853     0.838964     0.416944  Biso 1.000000     C
    C   1.0     0.890818     0.497824     0.081564  Biso 1.000000     C
    C   1.0     0.312481    -0.031325     0.604449  Biso 1.000000     C
    C   1.0     0.105969     0.558817     0.095724  Biso 1.000000     C
    C   1.0     0.486956     0.612374     0.095502  Biso 1.000000     C
    C   1.0     0.144989     0.676979     0.095423  Biso 1.000000     C
    C   1.0     0.705809    -0.019602     0.644097  Biso 1.000000     C
    C   1.0     0.917893     0.493657     0.247484  Biso 1.000000     C
    C   1.0     0.680581     0.199851     0.000000  Biso 1.000000     C
    C   1.0     0.838349     0.154622     0.636918  Biso 1.000000     C
    C   1.0     0.721079     0.994685     0.424346  Biso 1.000000     C
    C   1.0     0.885669     0.378500     0.222653  Biso 1.000000     C
    C   1.0     0.853260     0.453105     0.238412  Biso 1.000000     C
    C   1.0     0.826810    -0.015623     0.333706  Biso 1.000000     C
    C   1.0     0.196598     0.384533     0.253761  Biso 1.000000     C
    C   1.0     0.295460     0.376775     0.903430  Biso 1.000000     C
    C   1.0     0.879592     0.159159     0.736872  Biso 1.000000     C
    C   1.0     0.886385     0.011876     0.362548  Biso 1.000000     C
    C   1.0     0.238134     0.085208     0.465735  Biso 1.000000     C
    C   1.0     0.781967     0.110732     0.984802  Biso 1.000000     C
    C   1.0     0.933710     0.124409     0.611848  Biso 1.000000     C
    C   1.0     0.790935     0.810644     0.282141  Biso 1.000000     C
    C   1.0     0.327751     0.982949     0.384705  Biso 1.000000     C
    C   1.0     0.083452     0.420949     0.937125  Biso 1.000000     C
    C   1.0     0.761784     0.682260     0.295689  Biso 1.000000     C
    C   1.0     0.779184     0.008339     0.456451  Biso 1.000000     C
    C   1.0     0.184702     0.041641     0.445428  Biso 1.000000     C
    C   1.0     0.864069     0.023853     0.425759  Biso 1.000000     C
    C   1.0     0.038596     0.391088     0.225391  Biso 1.000000     C
    C   1.0     0.246083     0.435981     0.942115  Biso 1.000000     C
    C   1.0     0.982928     0.346790     0.216943  Biso 1.000000     C
    C   1.0     0.888569     0.286384     0.933375  Biso 1.000000     C
    C   1.0     0.296787     0.468019     0.976307  Biso 1.000000     C
    C   1.0     0.786511     0.390175     0.900371  Biso 1.000000     C
    C   1.0     0.772451     0.222415     0.200730  Biso 1.000000     C
    C   1.0     0.081725     0.055521     0.468680  Biso 1.000000     C
    C   1.0     0.230293     0.996881     0.404405  Biso 1.000000     C
    C   1.0     0.987983     0.646023     0.982576  Biso 1.000000     C
    C   1.0     0.688247     0.330026     0.160253  Biso 1.000000     C
    C   1.0     0.392891     0.350261     0.899329  Biso 1.000000     C
    C   1.0     0.713667     0.989280     0.178879  Biso 1.000000     C
    C   1.0     0.792014     0.606201     0.287218  Biso 1.000000     C
    C   1.0     0.962856     0.098550     0.547948  Biso 1.000000     C
    C   1.0     0.929088     0.048420     0.458719  Biso 1.000000     C
    C   1.0     0.189069     0.309398     0.170659  Biso 1.000000     C
    C   1.0     0.897552     0.081562     0.515946  Biso 1.000000     C
    C   1.0     0.832264     0.259915     0.219891  Biso 1.000000     C
    C   1.0     0.340251     0.304667     0.200264  Biso 1.000000     C
    C   1.0     0.744658     0.371221     0.178388  Biso 1.000000     C
    C   1.0     0.040426     0.692210     0.953902  Biso 1.000000     C
    C   1.0     0.393833     0.440867     0.972871  Biso 1.000000     C
    C   1.0     0.546609     0.350997     0.933284  Biso 1.000000     C
    C   1.0     0.811783     0.172055     0.698434  Biso 1.000000     C
    C   1.0     0.000000     0.035480     0.434987  Biso 1.000000     C
    C   1.0     0.819978     0.336260     0.208155  Biso 1.000000     C
    C   1.0     0.000000     0.768329     0.961014  Biso 1.000000     C
    C   1.0     0.975211     0.130927     0.711983  Biso 1.000000     C
    C   1.0     0.287098     0.283100     0.161555  Biso 1.000000     C
    C   1.0     0.381472     0.014838     0.404237  Biso 1.000000     C
    C   1.0     0.918806     0.695986     0.251573  Biso 1.000000     C
    C   1.0     0.955705     0.524266     0.962162  Biso 1.000000     C
    C   1.0     0.876344     0.754135     0.000000  Biso 1.000000     C
    C   1.0     0.990891     0.450336     0.944459  Biso 1.000000     C
    C   1.0     0.824495     0.728040     0.277190  Biso 1.000000     C
    C   1.0     0.444510     0.271091     0.194265  Biso 1.000000     C
    C   1.0     0.933503     0.800285     0.000000  Biso 1.000000     C
    C   1.0     0.927586     0.404546     0.933079  Biso 1.000000     C
    C   1.0     0.000000     0.565857     0.969806  Biso 1.000000     C
    C   1.0     0.902026     0.678125     0.000000  Biso 1.000000     C
    C   1.0     0.886002     0.573788     0.260596  Biso 1.000000     C
    C   1.0     0.638636     0.072847     0.233023  Biso 1.000000     C
    C   1.0     0.949333     0.619780     0.243950  Biso 1.000000     C
    C   1.0     0.849660     0.174731     0.803763  Biso 1.000000     C
    C   1.0     0.485475     0.004084     0.380611  Biso 1.000000     C
    C   1.0     0.142741     0.465534     0.947242  Biso 1.000000     C
    C   1.0     0.442671     0.381669     0.934328  Biso 1.000000     C
    C   1.0     0.844420     0.435389     0.909730  Biso 1.000000     C
    C   1.0     0.907523     0.881703     0.000000  Biso 1.000000     C
    C   1.0     0.949154     0.328043     0.944787  Biso 1.000000     C
    C   1.0     0.000000     0.114488     0.650166  Biso 1.000000     C
    C   1.0     0.142521     0.360902     0.216580  Biso 1.000000     C
    C   1.0     0.334981     0.072588     0.444706  Biso 1.000000     C
    C   1.0     0.293827     0.355093     0.246824  Biso 1.000000     C
    N   1.0     0.021852     0.500487     0.787964  Biso 1.000000     N
    N   1.0     0.982904     0.876973     0.504626  Biso 1.000000     N
    N   1.0     0.276782     0.045195     0.865945  Biso 1.000000     N
    N   1.0     0.191199     0.891845     0.090084  Biso 1.000000     N
    N   1.0     0.438708     0.646953     0.000000  Biso 1.000000     N
    N   1.0     0.225837     0.646663     0.116712  Biso 1.000000     N
    N   1.0     0.331577     0.706997     0.858292  Biso 1.000000     N
    N   1.0     0.359995    -0.047027     0.791395  Biso 1.000000     N
    N   1.0     0.367584     0.771555     0.982204  Biso 1.000000     N
    N   1.0     0.379544     0.866581     0.854027  Biso 1.000000     N
    N   1.0     0.301246     0.780588     0.049448  Biso 1.000000     N
    N   1.0     0.301941     0.829660     0.000000  Biso 1.000000     N
    N   1.0     0.924962     0.426165     0.066144  Biso 1.000000     N
    N   1.0     0.329368     0.929198     0.889102  Biso 1.000000     N
    N   1.0     0.289208    -0.018825     0.664952  Biso 1.000000     N
    N   1.0     0.435691     0.845722     0.747945  Biso 1.000000     N
    N   1.0     0.000000     0.462874     0.240833  Biso 1.000000     N
    N   1.0     0.594851     0.316410     0.025451  Biso 1.000000     N
    N   1.0     0.704192     0.034164     0.139693  Biso 1.000000     N
    N   1.0     0.701983     0.256364     0.170504  Biso 1.000000     N
    N   1.0     0.732314     0.182775     0.979346  Biso 1.000000     N
    N   1.0     0.756778     0.918167     0.162850  Biso 1.000000     N
    N   1.0     0.108599     0.537196     0.962652  Biso 1.000000     N
    N   1.0     0.807725     0.316700     0.912081  Biso 1.000000     N
    N   1.0     0.744351     0.982187     0.363843  Biso 1.000000     N
    N   1.0     0.665976     0.191808     0.046591  Biso 1.000000     N
    N   1.0     0.673563     0.000000     0.237399  Biso 1.000000     N
    N   1.0     0.597866     0.117639     0.280849  Biso 1.000000     N
    N   1.0     0.842362     0.071519     0.938712  Biso 1.000000     N
    N   1.0     0.731619     0.133703     0.013103  Biso 1.000000     N
    N   1.0     0.654016     0.096781     0.174768  Biso 1.000000     N
    N   1.0     0.050658     0.086386     0.524168  Biso 1.000000     N
    O   1.0     0.446804     0.668355     0.130475  Biso 1.000000     O
    O   1.0     0.187317     0.112663     0.769463  Biso 1.000000     O
    O   1.0     0.445309     0.584619     0.061676  Biso 1.000000     O
    O   1.0     0.329461     0.127562     0.720541  Biso 1.000000     O
    O   1.0     0.080354     0.038203     0.045819  Biso 1.000000     O
    O   1.0     0.136966     0.887842     0.957024  Biso 1.000000     O
    O   1.0     0.507297     0.910476     0.638326  Biso 1.000000     O
    O   1.0     0.544472     0.709994     0.889970  Biso 1.000000     O
    O   1.0     0.272357     0.755988     0.208244  Biso 1.000000     O
    O   1.0     0.227051     0.010964     0.000000  Biso 1.000000     O
    O   1.0     0.125093     0.807504     0.189305  Biso 1.000000     O
    O   1.0     0.550402     0.703029     0.788437  Biso 1.000000     O
    O   1.0     0.508217     0.006421     0.678729  Biso 1.000000     O
    O   1.0     0.483157     0.260334     0.240360  Biso 1.000000     O
    O   1.0     0.806510     0.952399     0.027312  Biso 1.000000     O
    O   1.0     0.525344     0.956931     0.350067  Biso 1.000000     O
    O   1.0     0.489088     0.253369     0.138827  Biso 1.000000     O
    O   1.0     0.588251     0.378742     0.967121  Biso 1.000000     O
    O   1.0     0.953207     0.925160     0.982976  Biso 1.000000     O
    O   1.0     0.908467     0.155858     0.839490  Biso 1.000000     O
    O   1.0     0.704101     0.835800     0.308253  Biso 1.000000     O
    O   1.0     0.846245     0.850698     0.259331  Biso 1.000000     O
    O   1.0     0.761203     0.207373     0.820551  Biso 1.000000     O
    O   1.0     0.586756     0.295007     0.898321  Biso 1.000000     O
    O   1.0     0.526263     0.052879     0.390464  Biso 1.000000     O
    O   1.0     0.896595     0.075520     0.071771  Biso 1.000000     O
   Zn   1.0     0.258724     0.922374     0.972172  Biso 1.000000    Zn
   Zn   1.0     0.312960     0.715930     0.125977  Biso 1.000000    Zn
   Zn   1.0     0.373395     0.018576     0.714987  Biso 1.000000    Zn
   Zn   1.0     0.412871     0.767443     0.891600  Biso 1.000000    Zn
   Zn   1.0     0.620689     0.195919     0.137195  Biso 1.000000    Zn
   Zn   1.0     0.774837     0.040988     0.056623  Biso 1.000000    Zn
   Zn   1.0     0.720602     0.247433     0.902817  Biso 1.000000    Zn
   Zn   1.0     0.660165     0.944785     0.313808  Biso 1.000000    Zn
