#======================================================================

# CRYSTAL DATA

#----------------------------------------------------------------------

data_VESTA_phase_1


_pd_phase_name                         MOF
_cell_length_a                         13.93800
_cell_length_b                         14.54300
_cell_length_c                         15.45600
_cell_angle_alpha                      73.15400
_cell_angle_beta                       87.87400
_cell_angle_gamma                      68.06500
_symmetry_space_group_name_H-M         "P 1"
_symmetry_Int_Tables_number            1

loop_
_symmetry_equiv_pos_as_xyz
   "x, y, z"

loop_
   _atom_site_label
   _atom_site_occupancy
   _atom_site_fract_x
   _atom_site_fract_y
   _atom_site_fract_z
   _atom_site_adp_type
   _atom_site_B_iso_or_equiv
   _atom_site_type_symbol
    H   1.0     0.645513     0.257571     0.970809  Biso 1.000000     H
    H   1.0     0.259905     0.429890     0.125621  Biso 1.000000     H
    H   1.0     0.327348     0.470431     0.925441  Biso 1.000000     H
    H   1.0     0.406528     0.987489     0.629685  Biso 1.000000     H
    H   1.0     0.000000     0.592221     0.151769  Biso 1.000000     H
    H   1.0     0.476870     0.182073     0.858340  Biso 1.000000     H
    H   1.0     0.082107     0.065342     0.252768  Biso 1.000000     H
    H   1.0     0.126372     0.442785     0.987748  Biso 1.000000     H
    H   1.0     0.446124     0.142268     0.631959  Biso 1.000000     H
    H   1.0     0.398309     0.854564     0.266257  Biso 1.000000     H
    H   1.0     0.873623     0.557176     0.012268  Biso 1.000000     H
    H   1.0     0.939744     0.577155     0.255397  Biso 1.000000     H
    H   1.0     0.804362     0.647165     0.735615  Biso 1.000000     H
    H   1.0     0.997325     0.418874     0.365326  Biso 1.000000     H
    H   1.0     0.855388     0.396582     0.295915  Biso 1.000000     H
    H   1.0     0.463080     0.049034     0.329711  Biso 1.000000     H
    H   1.0     0.179030     0.358103     0.889064  Biso 1.000000     H
    H   1.0     0.130975     0.738714     0.027405  Biso 1.000000     H
    H   1.0     0.002685     0.581061     0.634693  Biso 1.000000     H
    H   1.0    -0.000251     0.407729     0.848250  Biso 1.000000     H
    H   1.0     0.263062     0.005321     0.151743  Biso 1.000000     H
    H   1.0     0.430254     0.414782     0.159129  Biso 1.000000     H
    H   1.0     0.014669     0.936376     0.350009  Biso 1.000000     H
    H   1.0     0.536932     0.950917     0.670307  Biso 1.000000     H
    H   1.0     0.635697     0.072236     0.900728  Biso 1.000000     H
    H   1.0     0.395963     0.251934     0.755682  Biso 1.000000     H
    H   1.0     0.343449     0.126418     0.698954  Biso 1.000000     H
    H   1.0     0.144603     0.603379     0.704125  Biso 1.000000     H
    H   1.0     0.440204     0.194402     0.205189  Biso 1.000000     H
    H   1.0     0.736946     0.994632     0.848277  Biso 1.000000     H
    H   1.0     0.090579     0.307601     0.341902  Biso 1.000000     H
    H   1.0     0.364310     0.927715     0.099292  Biso 1.000000     H
    H   1.0     0.656562     0.873534     0.301062  Biso 1.000000     H
    H   1.0     0.074010     0.858944     0.515028  Biso 1.000000     H
    H   1.0     0.523138     0.817876     0.141681  Biso 1.000000     H
    H   1.0     0.195638     0.352785     0.264403  Biso 1.000000     H
    H   1.0     0.865304     0.472990     0.916842  Biso 1.000000     H
    H   1.0     0.060258     0.422790     0.744624  Biso 1.000000     H
    H   1.0     0.157685     0.487816     0.250357  Biso 1.000000     H
    H   1.0     0.365947     0.069955     0.994264  Biso 1.000000     H
    H   1.0     0.925980     0.141034     0.484983  Biso 1.000000     H
    H   1.0     0.272256     0.163772     0.815758  Biso 1.000000     H
    H   1.0     0.702491     0.404397     0.898150  Biso 1.000000     H
    H   1.0     0.297507     0.595566     0.101870  Biso 1.000000     H
    H   1.0     0.179023     0.071080     0.934999  Biso 1.000000     H
    H   1.0     0.797047     0.170052     0.893739  Biso 1.000000     H
    H   1.0     0.820977     0.928876     0.065021  Biso 1.000000     H
    H   1.0     0.672652     0.529516     0.074558  Biso 1.000000     H
    H   1.0     0.297203     0.221753     0.894821  Biso 1.000000     H
    H   1.0     0.820966     0.641850     0.110960  Biso 1.000000     H
    H   1.0     0.917865     0.934662     0.747253  Biso 1.000000     H
    H   1.0     0.379269     0.978601     0.276371  Biso 1.000000     H
    H   1.0     0.812895     0.528697     0.189356  Biso 1.000000     H
    H   1.0     0.553889     0.857682     0.368059  Biso 1.000000     H
    H   1.0     0.081702     0.974826     0.159209  Biso 1.000000     H
    H   1.0     0.727753     0.836177     0.184258  Biso 1.000000     H
    H   1.0     0.663839     0.785116     0.743807  Biso 1.000000     H
    H   1.0     0.740095     0.570064     0.874399  Biso 1.000000     H
    H   1.0     0.909419     0.692337     0.658105  Biso 1.000000     H
    H   1.0     0.187104     0.471253     0.810665  Biso 1.000000     H
    H   1.0     0.842311     0.512135     0.749663  Biso 1.000000     H
    H   1.0     0.736624     0.959395     0.517361  Biso 1.000000     H
    H   1.0     0.918292     0.025135     0.840819  Biso 1.000000     H
    H   1.0     0.604046     0.748016     0.244338  Biso 1.000000     H
    H   1.0     0.134696     0.526965     0.083178  Biso 1.000000     H
    H   1.0     0.263355     0.040593     0.482663  Biso 1.000000     H
    H   1.0     0.064855     0.724728     0.629281  Biso 1.000000     H
    H   1.0     0.601700     0.145388     0.733762  Biso 1.000000     H
    H   1.0     0.569740     0.585177     0.840890  Biso 1.000000     H
    H   1.0     0.702804     0.778194     0.105198  Biso 1.000000     H
    H   1.0     0.559808     0.805555     0.794823  Biso 1.000000     H
    H   1.0     0.354492     0.742387     0.029208  Biso 1.000000     H
    H   1.0     0.620742     0.021351     0.723647  Biso 1.000000     H
    H   1.0     0.593484     0.012463     0.370330  Biso 1.000000     H
    H   1.0     0.634061     0.929992     0.005753  Biso 1.000000     H
    H   1.0     0.336176     0.214836     0.256209  Biso 1.000000     H
    H   1.0     0.869029     0.261244     0.972623  Biso 1.000000     H
    H   1.0     0.202951     0.829908     0.106291  Biso 1.000000     H
    H   1.0     0.985327     0.063603     0.650001  Biso 1.000000     H
    H   1.0     0.935145     0.275216     0.370728  Biso 1.000000     H
    C   1.0     0.591400     0.071794     0.767283  Biso 1.000000     C
    C   1.0     0.177640     0.059426     0.361345  Biso 1.000000     C
    C   1.0     0.379762     0.581258     0.097082  Biso 1.000000     C
    C   1.0     0.107434     0.029903     0.324503  Biso 1.000000     C
    C   1.0     0.948074     0.067942     0.872397  Biso 1.000000     C
    C   1.0     0.827294     0.056039     0.490600  Biso 1.000000     C
    C   1.0     0.516782     0.645396     0.049023  Biso 1.000000     C
    C   1.0     0.667645     0.838901     0.138139  Biso 1.000000     C
    C   1.0     0.411035     0.663443     0.056877  Biso 1.000000     C
    C   1.0     0.790568     0.983077     0.545918  Biso 1.000000     C
    C   1.0     0.896988     0.085398     0.528866  Biso 1.000000     C
    C   1.0     0.346127     0.981917     0.140536  Biso 1.000000     C
    C   1.0     0.944258     0.959892     0.116820  Biso 1.000000     C
    C   1.0     0.427473     0.092365     0.693557  Biso 1.000000     C
    C   1.0     0.176337     0.445855     0.125103  Biso 1.000000     C
    C   1.0     0.409331     0.455756     0.918349  Biso 1.000000     C
    C   1.0     0.572539     0.907586     0.306460  Biso 1.000000     C
    C   1.0     0.017737     0.374373     0.315596  Biso 1.000000     C
    C   1.0     0.362030     0.646839     0.845465  Biso 1.000000     C
    C   1.0     0.972231     0.827421     0.042031  Biso 1.000000     C
    C   1.0     0.576858     0.822269     0.189047  Biso 1.000000     C
    C   1.0     0.549877     0.733472     0.000000  Biso 1.000000     C
    C   1.0     0.079849     0.799664     0.054278  Biso 1.000000     C
    C   1.0     0.455460     0.983167     0.686123  Biso 1.000000     C
    C   1.0     0.066851     0.666187     0.693962  Biso 1.000000     C
    C   1.0     0.483221     0.354557     0.950987  Biso 1.000000     C
    C   1.0     0.070155     0.957900     0.379215  Biso 1.000000     C
    C   1.0     0.103009     0.914576     0.471146  Biso 1.000000     C
    C   1.0     0.590669     0.544195     0.081654  Biso 1.000000     C
    C   1.0     0.929823     0.042095     0.620801  Biso 1.000000     C
    C   1.0     0.408609     0.928158     0.232735  Biso 1.000000     C
    C   1.0     0.172702     0.943933     0.509414  Biso 1.000000     C
    C   1.0     0.453356     0.480256     0.129053  Biso 1.000000     C
    C   1.0     0.931882     0.773657     0.990947  Biso 1.000000     C
    C   1.0     0.880588     0.148809     0.902449  Biso 1.000000     C
    C   1.0     0.795171     0.102275     0.391254  Biso 1.000000     C
    C   1.0     0.779344     0.866306     0.699800  Biso 1.000000     C
    C   1.0     0.135745     0.441020     0.855702  Biso 1.000000     C
    C   1.0     0.653880     0.018035     0.859483  Biso 1.000000     C
    C   1.0     0.544551     0.016784     0.313893  Biso 1.000000     C
    C   1.0     0.055737     0.040067     0.883204  Biso 1.000000     C
    C   1.0     0.095447     0.093250     0.925459  Biso 1.000000     C
    C   1.0     0.873496     0.046557     0.150237  Biso 1.000000     C
    C   1.0     0.038539     0.453961     0.802955  Biso 1.000000     C
    C   1.0     0.637959     0.353114     0.154538  Biso 1.000000     C
    C   1.0     0.588967     0.336513     0.943137  Biso 1.000000     C
    C   1.0     0.920152     0.200294     0.945749  Biso 1.000000     C
    C   1.0     0.961459     0.545989     0.197063  Biso 1.000000     C
    C   1.0     0.068123     0.226299     0.009075  Biso 1.000000     C
    C   1.0     0.119411     0.851151     0.097578  Biso 1.000000     C
    C   1.0     0.051922     0.932018     0.127630  Biso 1.000000     C
    C   1.0     0.332363     0.161047     0.861879  Biso 1.000000     C
    C   1.0     0.620237     0.418702     0.902934  Biso 1.000000     C
    C   1.0     0.126495     0.953402     0.849788  Biso 1.000000     C
    C   1.0     0.854284     0.569444     0.777437  Biso 1.000000     C
    C   1.0     0.933135     0.333771     0.306053  Biso 1.000000     C
    C   1.0     0.204807     0.897705     0.608763  Biso 1.000000     C
    C   1.0     0.982263     0.625570     0.684417  Biso 1.000000     C
    C   1.0     0.209423     0.016902     0.454101  Biso 1.000000     C
    C   1.0     0.423150     0.177681     0.810973  Biso 1.000000     C
    C   1.0     0.145714     0.430506     0.222582  Biso 1.000000     C
    C   1.0     0.864251     0.558932     0.144318  Biso 1.000000     C
    C   1.0     0.440774     0.538486     0.878634  Biso 1.000000     C
    C   1.0     0.559221     0.461468     0.121372  Biso 1.000000     C
    C   1.0     0.546639     0.519702     0.870962  Biso 1.000000     C
    C   1.0     0.904553     0.906708     0.074563  Biso 1.000000     C
    C   1.0     0.450126     0.266483    -0.002264  Biso 1.000000     C
    C   1.0     0.220653     0.133669     0.300217  Biso 1.000000     C
    C   1.0     0.822361     0.940546     0.638672  Biso 1.000000     C
    C   1.0     0.823663     0.554099     0.874916  Biso 1.000000     C
    C   1.0     0.892549     0.970089     0.675515  Biso 1.000000     C
    C   1.0     0.027771     0.172537     0.957991  Biso 1.000000     C
    N   1.0     0.036979     0.437134     0.227747  Biso 1.000000     N
    N   1.0     0.963019     0.562816     0.772268  Biso 1.000000     N
    N   1.0     0.519679     0.910711     0.223891  Biso 1.000000     N
    N   1.0     0.480330     0.089240     0.776127  Biso 1.000000     N
    O   1.0     0.646029     0.714683     0.999086  Biso 1.000000     O
    O   1.0     0.107880     0.494916     0.922463  Biso 1.000000     O
    O   1.0     0.259289     0.933792     0.644011  Biso 1.000000     O
    O   1.0     0.365650     0.241333     0.197257  Biso 1.000000     O
    O   1.0     0.367172     0.061273     0.929331  Biso 1.000000     O
    O   1.0     0.367522     0.071414     0.091656  Biso 1.000000     O
    O   1.0     0.950790     0.288916     0.233583  Biso 1.000000     O
    O   1.0     0.475435     0.822227     0.969822  Biso 1.000000     O
    O   1.0     0.632835     0.938674     0.070685  Biso 1.000000     O
    O   1.0     0.720872     0.836203     0.663530  Biso 1.000000     O
    O   1.0     0.266874     0.660069     0.854565  Biso 1.000000     O
    O   1.0     0.164474     0.207208     0.012878  Biso 1.000000     O
    O   1.0     0.175429     0.825135     0.652076  Biso 1.000000     O
    O   1.0     0.396215     0.718526     0.810156  Biso 1.000000     O
    O   1.0     0.153750     0.377970     0.084979  Biso 1.000000     O
    O   1.0     0.835531     0.792745     0.987147  Biso 1.000000     O
    O   1.0     0.603785     0.281444     0.189956  Biso 1.000000     O
    O   1.0     0.049158     0.711072     0.766413  Biso 1.000000     O
    O   1.0     0.440920     0.915524     0.769591  Biso 1.000000     O
    O   1.0     0.632486     0.928538     0.908360  Biso 1.000000     O
    O   1.0     0.824546     0.174845     0.347934  Biso 1.000000     O
    O   1.0     0.559089     0.084426     0.230423  Biso 1.000000     O
    O   1.0     0.524566     0.177728     0.030195  Biso 1.000000     O
    O   1.0     0.998527     0.288655     0.044110  Biso 1.000000     O
    O   1.0     0.892111     0.505043     0.077552  Biso 1.000000     O
    O   1.0     0.777550     0.060339     0.151601  Biso 1.000000     O
    O   1.0     0.634362     0.758623     0.802759  Biso 1.000000     O
    O   1.0     0.001475     0.711310     0.955902  Biso 1.000000     O
    O   1.0     0.740714     0.066163     0.356007  Biso 1.000000     O
    O   1.0     0.803718     0.840725     0.785115  Biso 1.000000     O
    O   1.0     0.915310     0.100126     0.175727  Biso 1.000000     O
    O   1.0     0.279142     0.163755     0.336484  Biso 1.000000     O
    O   1.0     0.196296     0.159230     0.214901  Biso 1.000000     O
    O   1.0     0.222439     0.939626     0.848410  Biso 1.000000     O
    O   1.0     0.846249     0.621988     0.915036  Biso 1.000000     O
    O   1.0     0.084676     0.899826     0.824314  Biso 1.000000     O
    O   1.0     0.733109     0.339862     0.145335  Biso 1.000000     O
    O   1.0     0.353972     0.285277     0.000931  Biso 1.000000     O
   Zn   1.0     0.733125     0.775544     0.896663  Biso 1.000000    Zn
   Zn   1.0     0.982326     0.639053     0.870512  Biso 1.000000    Zn
   Zn   1.0     0.517476     0.050049     0.118272  Biso 1.000000    Zn
   Zn   1.0     0.266879     0.224422     0.103350  Biso 1.000000    Zn
   Zn   1.0     0.482530     0.949899     0.881742  Biso 1.000000    Zn
   Zn   1.0     0.323733     0.870086     0.771277  Biso 1.000000    Zn
   Zn   1.0     0.676265     0.129876     0.228741  Biso 1.000000    Zn
   Zn   1.0     0.017664     0.360914     0.129498  Biso 1.000000    Zn
   Zn   1.0     0.856014     0.223990     0.218431  Biso 1.000000    Zn
   Zn   1.0     0.143925     0.775998     0.781572  Biso 1.000000    Zn
