#======================================================================

# CRYSTAL DATA

#----------------------------------------------------------------------

data_VESTA_phase_1


_pd_phase_name                         MOF
_cell_length_a                         13.58000
_cell_length_b                         16.21700
_cell_length_c                         16.21500
_cell_angle_alpha                      67.20500
_cell_angle_beta                       73.96300
_cell_angle_gamma                      106.04900
_symmetry_space_group_name_H-M         "P 1"
_symmetry_Int_Tables_number            1

loop_
_symmetry_equiv_pos_as_xyz
   "x, y, z"

loop_
   _atom_site_label
   _atom_site_occupancy
   _atom_site_fract_x
   _atom_site_fract_y
   _atom_site_fract_z
   _atom_site_adp_type
   _atom_site_B_iso_or_equiv
   _atom_site_type_symbol
    H   1.0     0.630693     0.432656     0.302609  Biso 1.000000     H
    H   1.0     0.141357     0.000725     0.360548  Biso 1.000000     H
    H   1.0     0.449279     0.853294     0.710953  Biso 1.000000     H
    H   1.0     0.636796     0.451350     0.141868  Biso 1.000000     H
    H   1.0     0.630571     0.697370     0.567471  Biso 1.000000     H
    H   1.0     0.517340     0.639151     0.360843  Biso 1.000000     H
    H   1.0     0.449237     0.289069     0.146774  Biso 1.000000     H
    H   1.0     0.830919     0.438780     0.873974  Biso 1.000000     H
    H   1.0     0.878232     0.000261     0.639192  Biso 1.000000     H
    H   1.0     0.810351     0.749138     0.548891  Biso 1.000000     H
    H   1.0     0.621842     0.444661     0.693165  Biso 1.000000     H
    H   1.0     0.621718     0.306825     0.555503  Biso 1.000000     H
    H   1.0     0.141397     0.639540    -0.000690  Biso 1.000000     H
    H   1.0     0.347861     0.537357     0.864180  Biso 1.000000     H
    H   1.0     0.392063     0.686930     0.438216  Biso 1.000000     H
    H   1.0     0.176347     0.555027     0.136903  Biso 1.000000     H
    H   1.0     0.212977     0.403704     0.135149  Biso 1.000000     H
    H   1.0     0.558987     0.726744     0.849441  Biso 1.000000     H
    H   1.0     0.810373     0.451180     0.250863  Biso 1.000000     H
    H   1.0     0.313080     0.137059     0.309002  Biso 1.000000     H
    H   1.0     0.833063     0.423875     0.725114  Biso 1.000000     H
    H   1.0     0.596131     0.144838     0.564935  Biso 1.000000     H
    H   1.0     0.212973     0.864915     0.596312  Biso 1.000000     H
    H   1.0     0.830830     0.126046     0.561212  Biso 1.000000     H
    H   1.0     0.185040     0.548146     0.592393  Biso 1.000000     H
    H   1.0     0.931971     0.734198     0.699152  Biso 1.000000     H
    H   1.0     0.777578     0.140448     0.407849  Biso 1.000000     H
    H   1.0     0.062356     0.703262     0.746465  Biso 1.000000     H
    H   1.0     0.931991     0.300970     0.265877  Biso 1.000000     H
    H   1.0     0.062316     0.253521     0.296776  Biso 1.000000     H
    H   1.0     0.197497     0.566600     0.734458  Biso 1.000000     H
    H   1.0     0.501328     0.359066     0.640966  Biso 1.000000     H
    H   1.0     0.358594     0.297177     0.451892  Biso 1.000000     H
    H   1.0     0.358467     0.547939     0.702913  Biso 1.000000     H
    H   1.0     0.313086     0.691114     0.863010  Biso 1.000000     H
    H   1.0     0.409110     0.850828     0.423173  Biso 1.000000     H
    H   1.0     0.559092     0.150567     0.273180  Biso 1.000000     H
    H   1.0     0.705843     0.314351     0.124238  Biso 1.000000     H
    H   1.0     0.347987     0.135937     0.462466  Biso 1.000000     H
    H   1.0     0.636669     0.858093     0.548743  Biso 1.000000     H
    H   1.0     0.197397     0.265525     0.433547  Biso 1.000000     H
    H   1.0     0.832984     0.274934     0.576020  Biso 1.000000     H
    H   1.0     0.596141     0.435125     0.855232  Biso 1.000000     H
    H   1.0     0.160426     0.711404     0.434413  Biso 1.000000     H
    H   1.0     0.184941     0.407577     0.451985  Biso 1.000000     H
    H   1.0     0.878371     0.360847    -0.000273  Biso 1.000000     H
    H   1.0     0.705721     0.875676     0.685624  Biso 1.000000     H
    H   1.0     0.409174     0.576802     0.149100  Biso 1.000000     H
    H   1.0     0.777539     0.592203     0.859651  Biso 1.000000     H
    H   1.0     0.810657     0.599052     0.537219  Biso 1.000000     H
    H   1.0     0.160440     0.565628     0.288675  Biso 1.000000     H
    H   1.0     0.810678     0.462950     0.400915  Biso 1.000000     H
    H   1.0     0.391993     0.561662     0.313077  Biso 1.000000     H
    H   1.0     0.176337     0.863139     0.445048  Biso 1.000000     H
    C   1.0     0.107511     0.343753     0.475549  Biso 1.000000     C
    C   1.0     0.456437     0.813085     0.455075  Biso 1.000000     C
    C   1.0     0.504394     0.420843     0.579192  Biso 1.000000     C
    C   1.0     0.492103     0.316470     0.501347  Biso 1.000000     C
    C   1.0     0.850873     0.271244     0.263966  Biso 1.000000     C
    C   1.0     0.911993     0.455423     0.730993  Biso 1.000000     C
    C   1.0     0.544854     0.460268     0.819099  Biso 1.000000     C
    C   1.0     0.832795     0.818504     0.677313  Biso 1.000000     C
    C   1.0     0.405678     0.176294     0.483655  Biso 1.000000     C
    C   1.0     0.014603     0.504255     0.817742  Biso 1.000000     C
    C   1.0     0.850823     0.736063     0.728840  Biso 1.000000     C
    C   1.0     0.998883     0.496114     0.091035  Biso 1.000000     C
    C   1.0     0.286023     0.727109     0.805956  Biso 1.000000     C
    C   1.0     0.992891     0.818192     0.499523  Biso 1.000000     C
    C   1.0     0.510107     0.495492     0.322987  Biso 1.000000     C
    C   1.0     0.889860     0.743160     0.524044  Biso 1.000000     C
    C   1.0     0.582812     0.818055     0.524954  Biso 1.000000     C
    C   1.0     0.092546     0.534170     0.193335  Biso 1.000000     C
    C   1.0     0.932468     0.424632    -0.000400  Biso 1.000000     C
    C   1.0     0.492141     0.498667     0.683574  Biso 1.000000     C
    C   1.0     0.558677     0.465418     0.728756  Biso 1.000000     C
    C   1.0     0.082864     0.000627     0.422013  Biso 1.000000     C
    C   1.0     0.507621     0.575111     0.424885  Biso 1.000000     C
    C   1.0     0.505101     0.582963     0.508482  Biso 1.000000     C
    C   1.0     0.505044     0.491505     0.417065  Biso 1.000000     C
    C   1.0     0.832853     0.322740     0.181499  Biso 1.000000     C
    C   1.0     0.921854     0.908785     0.583485  Biso 1.000000     C
    C   1.0     0.147574     0.733642     0.741081  Biso 1.000000     C
    C   1.0     0.082875     0.578081    -0.000585  Biso 1.000000     C
    C   1.0     0.998831     0.908979     0.503925  Biso 1.000000     C
    C   1.0     0.725764     0.278125     0.185500  Biso 1.000000     C
    C   1.0     0.992924     0.500598     0.181798  Biso 1.000000     C
    C   1.0     0.448023     0.536545     0.277462  Biso 1.000000     C
    C   1.0     0.413495     0.523341     0.733810  Biso 1.000000     C
    C   1.0     0.413564     0.266250     0.476562  Biso 1.000000     C
    C   1.0     0.175132     0.682633     0.816894  Biso 1.000000     C
    C   1.0     0.579408     0.727790     0.535582  Biso 1.000000     C
    C   1.0     0.084071     0.721945     0.460011  Biso 1.000000     C
    C   1.0     0.544806     0.180943     0.539834  Biso 1.000000     C
    C   1.0     0.114644     0.264108     0.465035  Biso 1.000000     C
    C   1.0     0.090318     0.587512     0.907878  Biso 1.000000     C
    C   1.0     0.579513     0.464501     0.272170  Biso 1.000000     C
    C   1.0     0.107609     0.524543     0.656233  Biso 1.000000     C
    C   1.0     0.229576     0.823831     0.658522  Biso 1.000000     C
    C   1.0     0.764119     0.181070     0.343595  Biso 1.000000     C
    C   1.0     0.090261     0.092173     0.412555  Biso 1.000000     C
    C   1.0     0.889892     0.476052     0.256831  Biso 1.000000     C
    C   1.0     0.362522     0.817729     0.721066  Biso 1.000000     C
    C   1.0     0.229577     0.341493     0.176218  Biso 1.000000     C
    C   1.0     0.014511     0.182262     0.495804  Biso 1.000000     C
    C   1.0     0.889258     0.483861     0.339306  Biso 1.000000     C
    C   1.0     0.889255     0.660708     0.516218  Biso 1.000000     C
    C   1.0     0.502402     0.503012     0.588384  Biso 1.000000     C
    C   1.0     0.911907     0.269018     0.544576  Biso 1.000000     C
    C   1.0     0.114739     0.535051     0.735894  Biso 1.000000     C
    C   1.0     0.447970     0.722503     0.463459  Biso 1.000000     C
    C   1.0     0.456461     0.544882     0.186891  Biso 1.000000     C
    C   1.0     0.013335     0.092094     0.492040  Biso 1.000000     C
    C   1.0     0.764065     0.656434     0.819011  Biso 1.000000     C
    C   1.0     0.921905     0.416568     0.091208  Biso 1.000000     C
    C   1.0     0.558642     0.271304     0.534619  Biso 1.000000     C
    C   1.0     0.362509     0.278982     0.182385  Biso 1.000000     C
    C   1.0     0.911826     0.463670     0.813226  Biso 1.000000     C
    C   1.0     0.510074     0.677003     0.504508  Biso 1.000000     C
    C   1.0     0.502459     0.411658     0.496996  Biso 1.000000     C
    C   1.0     0.911741     0.186802     0.536310  Biso 1.000000     C
    C   1.0     0.643599     0.732183     0.812390  Biso 1.000000     C
    C   1.0     0.013434     0.508032     0.907913  Biso 1.000000     C
    C   1.0     0.932353     0.000380     0.575425  Biso 1.000000     C
    C   1.0     0.286004     0.194084     0.272993  Biso 1.000000     C
    C   1.0     0.175100     0.183134     0.317417  Biso 1.000000     C
    C   1.0     0.725680     0.814462     0.721894  Biso 1.000000     C
    C   1.0     0.084092     0.540102     0.278091  Biso 1.000000     C
    C   1.0     0.582941     0.475148     0.181882  Biso 1.000000     C
    C   1.0     0.643705     0.187604     0.267755  Biso 1.000000     C
    C   1.0     0.092536     0.806728     0.465871  Biso 1.000000     C
    C   1.0     0.405597     0.516235     0.823787  Biso 1.000000     C
    C   1.0     0.147562     0.258959     0.266429  Biso 1.000000     C
    N   1.0     0.661494     0.138954     0.346910  Biso 1.000000     N
    N   1.0     0.008599     0.485842     0.652396  Biso 1.000000     N
    N   1.0     0.661423     0.653082     0.861106  Biso 1.000000     N
    N   1.0     0.470571     0.485332     0.866560  Biso 1.000000     N
    N   1.0     0.008511     0.347624     0.514157  Biso 1.000000     N
    N   1.0     0.522710     0.514268     0.138938  Biso 1.000000     N
    N   1.0     0.985035     0.515260     0.350677  Biso 1.000000     N
    N   1.0     0.336472     0.352265     0.134086  Biso 1.000000     N
    N   1.0     0.985030     0.649351     0.484830  Biso 1.000000     N
    N   1.0     0.336480     0.865967     0.647749  Biso 1.000000     N
    N   1.0     0.470676     0.133567     0.514579  Biso 1.000000     N
    N   1.0     0.522612     0.860995     0.485781  Biso 1.000000     N
    S   1.0     0.736712     0.384360     0.615743  Biso 1.000000     S
    S   1.0     0.353632     0.617988    -0.000247  Biso 1.000000     S
    S   1.0     0.353706     0.000303     0.381922  Biso 1.000000     S
   Cd   1.0    -0.063226     0.478337     0.521690  Biso 1.000000    Cd
   Cd   1.0     0.459424     0.523207    -0.000205  Biso 1.000000    Cd
   Cd   1.0     0.459423     0.000228     0.476796  Biso 1.000000    Cd
