#======================================================================

# CRYSTAL DATA

#----------------------------------------------------------------------

data_VESTA_phase_1


_pd_phase_name                         MOF
_cell_length_a                         10.09300
_cell_length_b                         13.80400
_cell_length_c                         15.79200
_cell_angle_alpha                      105.52800
_cell_angle_beta                       93.85100
_cell_angle_gamma                      109.48500
_symmetry_space_group_name_H-M         "P 1"
_symmetry_Int_Tables_number            1

loop_
_symmetry_equiv_pos_as_xyz
   "x, y, z"

loop_
   _atom_site_label
   _atom_site_occupancy
   _atom_site_fract_x
   _atom_site_fract_y
   _atom_site_fract_z
   _atom_site_adp_type
   _atom_site_B_iso_or_equiv
   _atom_site_type_symbol
    H   1.0     0.201828     0.277413     0.198990  Biso 1.000000     H
    H   1.0     0.201827     0.277417     0.698994  Biso 1.000000     H
    H   1.0     0.201843     0.777455     0.198961  Biso 1.000000     H
    H   1.0     0.201842     0.777458     0.698964  Biso 1.000000     H
    H   1.0     0.701813     0.277410     0.198991  Biso 1.000000     H
    H   1.0     0.701812     0.277414     0.698995  Biso 1.000000     H
    H   1.0     0.701829     0.777452     0.198962  Biso 1.000000     H
    H   1.0     0.701828     0.777456     0.698966  Biso 1.000000     H
    H   1.0     0.520114     0.029321     0.253450  Biso 1.000000     H
    H   1.0     0.520110     0.029322     0.753454  Biso 1.000000     H
    H   1.0     0.520099     0.529314     0.253456  Biso 1.000000     H
    H   1.0     0.520096     0.529317     0.753460  Biso 1.000000     H
    H   1.0     0.000000     0.029318     0.253451  Biso 1.000000     H
    H   1.0     0.000000     0.029319     0.753454  Biso 1.000000     H
    H   1.0     0.000000     0.529310     0.253457  Biso 1.000000     H
    H   1.0     0.000000     0.529313     0.753461  Biso 1.000000     H
    C   1.0     0.245246     0.384128     0.330237  Biso 1.000000     C
    C   1.0     0.245243     0.384130     0.830241  Biso 1.000000     C
    C   1.0     0.245264     0.884160     0.330212  Biso 1.000000     C
    C   1.0     0.245262     0.884163     0.830216  Biso 1.000000     C
    C   1.0     0.745232     0.384125     0.330238  Biso 1.000000     C
    C   1.0     0.745232     0.384129     0.830242  Biso 1.000000     C
    C   1.0     0.745253     0.884160     0.330213  Biso 1.000000     C
    C   1.0     0.745247     0.884160     0.830218  Biso 1.000000     C
    C   1.0     0.332643     0.333599     0.372276  Biso 1.000000     C
    C   1.0     0.332640     0.333601     0.872280  Biso 1.000000     C
    C   1.0     0.332637     0.833617     0.372254  Biso 1.000000     C
    C   1.0     0.332632     0.833618     0.872259  Biso 1.000000     C
    C   1.0     0.832629     0.333596     0.372278  Biso 1.000000     C
    C   1.0     0.832623     0.333597     0.872282  Biso 1.000000     C
    C   1.0     0.832620     0.833613     0.372257  Biso 1.000000     C
    C   1.0     0.832620     0.833616     0.872260  Biso 1.000000     C
    C   1.0     0.184508     0.346463     0.242316  Biso 1.000000     C
    C   1.0     0.184507     0.346467     0.742320  Biso 1.000000     C
    C   1.0     0.184508     0.846493     0.242295  Biso 1.000000     C
    C   1.0     0.184505     0.846495     0.742299  Biso 1.000000     C
    C   1.0     0.684496     0.346462     0.242317  Biso 1.000000     C
    C   1.0     0.684492     0.346463     0.742321  Biso 1.000000     C
    C   1.0     0.684494     0.846490     0.242296  Biso 1.000000     C
    C   1.0     0.684496     0.846495     0.742300  Biso 1.000000     C
    C   1.0     0.097430     0.396563     0.208720  Biso 1.000000     C
    C   1.0     0.097427     0.396566     0.708724  Biso 1.000000     C
    C   1.0     0.097443     0.896606     0.208703  Biso 1.000000     C
    C   1.0     0.097436     0.896606     0.708707  Biso 1.000000     C
    C   1.0     0.597415     0.396560     0.208722  Biso 1.000000     C
    C   1.0     0.597416     0.396565     0.708725  Biso 1.000000     C
    C   1.0     0.597429     0.896603     0.208704  Biso 1.000000     C
    C   1.0     0.597425     0.896604     0.708709  Biso 1.000000     C
    C   1.0     0.083611     0.486717     0.273497  Biso 1.000000     C
    C   1.0     0.083609     0.486720     0.773500  Biso 1.000000     C
    C   1.0     0.083606     0.986744     0.273488  Biso 1.000000     C
    C   1.0     0.083600     0.986745     0.773492  Biso 1.000000     C
    C   1.0     0.583605     0.486719     0.273496  Biso 1.000000     C
    C   1.0     0.583600     0.486719     0.773501  Biso 1.000000     C
    C   1.0     0.583597     0.986744     0.273488  Biso 1.000000     C
    C   1.0     0.583597     0.986748     0.773492  Biso 1.000000     C
    C   1.0     0.147965     0.018815     0.359850  Biso 1.000000     C
    C   1.0     0.147960     0.018816     0.859854  Biso 1.000000     C
    C   1.0     0.147952     0.518820     0.359862  Biso 1.000000     C
    C   1.0     0.147948     0.518822     0.859866  Biso 1.000000     C
    C   1.0     0.647957     0.018816     0.359850  Biso 1.000000     C
    C   1.0     0.647951     0.018816     0.859855  Biso 1.000000     C
    C   1.0     0.647943     0.518820     0.359862  Biso 1.000000     C
    C   1.0     0.647941     0.518823     0.859866  Biso 1.000000     C
    C   1.0     0.136190     0.112429     0.430617  Biso 1.000000     C
    C   1.0     0.136183     0.112428     0.930621  Biso 1.000000     C
    C   1.0     0.136205     0.612461     0.430613  Biso 1.000000     C
    C   1.0     0.136200     0.612462     0.930616  Biso 1.000000     C
    C   1.0     0.636178     0.112426     0.430617  Biso 1.000000     C
    C   1.0     0.636175     0.112429     0.930620  Biso 1.000000     C
    C   1.0     0.636194     0.612460     0.430612  Biso 1.000000     C
    C   1.0     0.636188     0.612459     0.930618  Biso 1.000000     C
    O   1.0     0.228579     0.469403     0.389251  Biso 1.000000     O
    O   1.0     0.228573     0.469404     0.889255  Biso 1.000000     O
    O   1.0     0.228609     0.969439     0.389231  Biso 1.000000     O
    O   1.0     0.228608     0.969443     0.889234  Biso 1.000000     O
    O   1.0     0.728567     0.469401     0.389252  Biso 1.000000     O
    O   1.0     0.728571     0.469407     0.889255  Biso 1.000000     O
    O   1.0     0.728606     0.969443     0.389230  Biso 1.000000     O
    O   1.0     0.728592     0.969438     0.889236  Biso 1.000000     O
    O   1.0     0.391742     0.383547     0.454258  Biso 1.000000     O
    O   1.0     0.391738     0.383549     0.954262  Biso 1.000000     O
    O   1.0     0.391774     0.883583     0.454228  Biso 1.000000     O
    O   1.0     0.391769     0.883584     0.954233  Biso 1.000000     O
    O   1.0     0.891722     0.383542     0.454261  Biso 1.000000     O
    O   1.0     0.891720     0.383544     0.954265  Biso 1.000000     O
    O   1.0     0.891755     0.883578     0.454231  Biso 1.000000     O
    O   1.0     0.891752     0.883580     0.954235  Biso 1.000000     O
    O   1.0     0.338740     0.246678     0.325774  Biso 1.000000     O
    O   1.0     0.338737     0.246681     0.825778  Biso 1.000000     O
    O   1.0     0.338713     0.746687     0.325757  Biso 1.000000     O
    O   1.0     0.338712     0.746690     0.825760  Biso 1.000000     O
    O   1.0     0.838733     0.246679     0.325774  Biso 1.000000     O
    O   1.0     0.838725     0.246679     0.825779  Biso 1.000000     O
    O   1.0     0.838706     0.746688     0.325758  Biso 1.000000     O
    O   1.0     0.838703     0.746689     0.825761  Biso 1.000000     O
    O   1.0     0.532829     0.366899     0.129209  Biso 1.000000     O
    O   1.0     0.532822     0.366899     0.629213  Biso 1.000000     O
    O   1.0     0.532826     0.866938     0.129194  Biso 1.000000     O
    O   1.0     0.532825     0.866941     0.629198  Biso 1.000000     O
    O   1.0     0.000000     0.366891     0.129210  Biso 1.000000     O
    O   1.0     0.000000     0.366893     0.629214  Biso 1.000000     O
    O   1.0     0.000000     0.866930     0.129196  Biso 1.000000     O
    O   1.0     0.000000     0.866933     0.629199  Biso 1.000000     O
    O   1.0     0.230640     0.163574     0.499248  Biso 1.000000     O
    O   1.0     0.230634     0.163576     0.999251  Biso 1.000000     O
    O   1.0     0.230663     0.663620     0.499238  Biso 1.000000     O
    O   1.0     0.230658     0.663621     0.999242  Biso 1.000000     O
    O   1.0     0.730630     0.163576     0.499247  Biso 1.000000     O
    O   1.0     0.730625     0.163578     0.999251  Biso 1.000000     O
    O   1.0     0.730652     0.663621     0.499237  Biso 1.000000     O
    O   1.0     0.730647     0.663621     0.999242  Biso 1.000000     O
    O   1.0     0.024391     0.131129     0.410930  Biso 1.000000     O
    O   1.0     0.024383     0.131127     0.910935  Biso 1.000000     O
    O   1.0     0.024394     0.631149     0.410931  Biso 1.000000     O
    O   1.0     0.024389     0.631150     0.910935  Biso 1.000000     O
    O   1.0     0.524378     0.131125     0.410930  Biso 1.000000     O
    O   1.0     0.524373     0.131126     0.910934  Biso 1.000000     O
    O   1.0     0.524384     0.631148     0.410930  Biso 1.000000     O
    O   1.0     0.524379     0.631148     0.910934  Biso 1.000000     O
   Cd   1.0     0.964044     0.259748     0.989970  Biso 1.000000    Cd
   Cd   1.0     0.964050     0.259748     0.489966  Biso 1.000000    Cd
   Cd   1.0     0.964060     0.759786     0.989953  Biso 1.000000    Cd
   Cd   1.0     0.964065     0.759785     0.489949  Biso 1.000000    Cd
   Cd   1.0     0.464059     0.259752     0.489967  Biso 1.000000    Cd
   Cd   1.0     0.464054     0.259752     0.989971  Biso 1.000000    Cd
   Cd   1.0     0.464076     0.759790     0.489950  Biso 1.000000    Cd
   Cd   1.0     0.464069     0.759790     0.989954  Biso 1.000000    Cd
