#======================================================================

# CRYSTAL DATA

#----------------------------------------------------------------------

data_VESTA_phase_1


_pd_phase_name                         MOF
_cell_length_a                         13.57300
_cell_length_b                         13.65400
_cell_length_c                         27.52000
_cell_angle_alpha                      90.01300
_cell_angle_beta                       89.99100
_cell_angle_gamma                      90.60600
_symmetry_space_group_name_H-M         "P 1"
_symmetry_Int_Tables_number            1

loop_
_symmetry_equiv_pos_as_xyz
   "x, y, z"

loop_
   _atom_site_label
   _atom_site_occupancy
   _atom_site_fract_x
   _atom_site_fract_y
   _atom_site_fract_z
   _atom_site_adp_type
   _atom_site_B_iso_or_equiv
   _atom_site_type_symbol
    H   1.0     0.690459     0.911056     0.344973  Biso 1.000000     H
    H   1.0     0.720612     0.136610     0.082073  Biso 1.000000     H
    H   1.0     0.020866     0.313181     0.957096  Biso 1.000000     H
    H   1.0     0.300981     0.995585     0.534419  Biso 1.000000     H
    H   1.0     0.312141     0.972404     0.444932  Biso 1.000000     H
    H   1.0     0.475364     0.400624     0.783867  Biso 1.000000     H
    H   1.0     0.633917     0.538860     0.721133  Biso 1.000000     H
    H   1.0     0.997636     0.678244     0.561751  Biso 1.000000     H
    H   1.0     0.293284     0.819644     0.097269  Biso 1.000000     H
    H   1.0     0.497641     0.178257     0.938180  Biso 1.000000     H
    H   1.0     0.504501     0.151878     0.027429  Biso 1.000000     H
    H   1.0     0.184064     0.515703     0.561141  Biso 1.000000     H
    H   1.0     0.188714     0.494073     0.471373  Biso 1.000000     H
    H   1.0     0.468363     0.775451     0.338423  Biso 1.000000     H
    H   1.0     0.340845     0.224486     0.898857  Biso 1.000000     H
    H   1.0     0.659182     0.775541     0.101154  Biso 1.000000     H
    H   1.0     0.793283     0.319646     0.402744  Biso 1.000000     H
    H   1.0     0.688781    -0.005864     0.028598  Biso 1.000000     H
    H   1.0     0.645431     0.828238     0.922408  Biso 1.000000     H
    H   1.0     0.554757     0.131568     0.339172  Biso 1.000000     H
    H   1.0     0.054790     0.631530     0.160807  Biso 1.000000     H
    H   1.0     0.824383     0.057434     0.793700  Biso 1.000000     H
    H   1.0     0.495528     0.848162     0.972584  Biso 1.000000     H
    H   1.0     0.010289     0.798978     0.287386  Biso 1.000000     H
    H   1.0     0.968434     0.275412     0.161590  Biso 1.000000     H
    H   1.0     0.866045     0.961146     0.221112  Biso 1.000000     H
    H   1.0     0.812485     0.472412     0.055061  Biso 1.000000     H
    H   1.0     0.309558     0.088959     0.655037  Biso 1.000000     H
    H   1.0     0.479160     0.186803     0.457010  Biso 1.000000     H
    H   1.0     0.840862     0.724472     0.601130  Biso 1.000000     H
    H   1.0     0.354595     0.171798     0.077604  Biso 1.000000     H
    H   1.0     0.473560     0.216491     0.546195  Biso 1.000000     H
    H   1.0     0.975424     0.900677     0.716178  Biso 1.000000     H
    H   1.0     0.024591     0.099334     0.283831  Biso 1.000000     H
    H   1.0     0.995558     0.348131     0.527534  Biso 1.000000     H
    H   1.0     0.699047     0.004437     0.465591  Biso 1.000000     H
    H   1.0     0.675674     0.442624     0.293688  Biso 1.000000     H
    H   1.0     0.973535     0.716528     0.953754  Biso 1.000000     H
    H   1.0     0.220430     0.636543     0.417907  Biso 1.000000     H
    H   1.0     0.366096     0.461159     0.278879  Biso 1.000000     H
    H   1.0     0.531658     0.224560     0.661588  Biso 1.000000     H
    H   1.0     0.489685     0.701126     0.787417  Biso 1.000000     H
    H   1.0     0.684053     0.015725     0.938851  Biso 1.000000     H
    H   1.0     0.002385     0.321780     0.438259  Biso 1.000000     H
    H   1.0     0.145476     0.328179     0.577661  Biso 1.000000     H
    H   1.0     0.526461     0.783525     0.453814  Biso 1.000000     H
    H   1.0     0.666819     0.995138     0.665355  Biso 1.000000     H
    H   1.0     0.026492     0.283501     0.046257  Biso 1.000000     H
    H   1.0     0.159156     0.275545     0.398880  Biso 1.000000     H
    H   1.0     0.175644     0.942583     0.206308  Biso 1.000000     H
    H   1.0     0.004464     0.651892     0.472477  Biso 1.000000     H
    H   1.0     0.190520     0.410974     0.155040  Biso 1.000000     H
    H   1.0     0.989733     0.201046     0.712621  Biso 1.000000     H
    H   1.0     0.206732     0.680373     0.597261  Biso 1.000000     H
    H   1.0     0.854547     0.671844     0.422349  Biso 1.000000     H
    H   1.0     0.445259     0.868444     0.660835  Biso 1.000000     H
    H   1.0     0.706743     0.180377     0.902746  Biso 1.000000     H
    H   1.0     0.524657     0.599395     0.216140  Biso 1.000000     H
    H   1.0     0.133967     0.038870     0.778897  Biso 1.000000     H
    H   1.0     0.801234     0.495560     0.965598  Biso 1.000000     H
    H   1.0     0.324352     0.557391     0.706325  Biso 1.000000     H
    H   1.0     0.945230     0.368485     0.839203  Biso 1.000000     H
    H   1.0     0.502388     0.821780     0.061833  Biso 1.000000     H
    H   1.0     0.687891     0.027620     0.555077  Biso 1.000000     H
    H   1.0     0.815961     0.484317     0.438861  Biso 1.000000     H
    H   1.0     0.311249     0.000000     0.971421  Biso 1.000000     H
    H   1.0     0.979162     0.686850     0.042915  Biso 1.000000     H
    H   1.0     0.811313     0.505951     0.528629  Biso 1.000000     H
    H   1.0     0.333208     0.004876     0.334654  Biso 1.000000     H
    H   1.0     0.520859     0.813213     0.542999  Biso 1.000000     H
    H   1.0     0.166722     0.495181     0.834675  Biso 1.000000     H
    H   1.0     0.779607     0.363484     0.582098  Biso 1.000000     H
    H   1.0     0.279424     0.863431     0.917943  Biso 1.000000     H
    H   1.0     0.187572     0.527621     0.944942  Biso 1.000000     H
    H   1.0     0.809500     0.589043     0.844970  Biso 1.000000     H
    H   1.0     0.833308     0.504835     0.165339  Biso 1.000000     H
    H   1.0     0.510335     0.298904     0.212595  Biso 1.000000     H
    H   1.0     0.315962     0.984302     0.061169  Biso 1.000000     H
    H   1.0     0.198815     0.504462     0.034405  Biso 1.000000     H
    H   1.0     0.031586     0.724604     0.838420  Biso 1.000000     H
    C   1.0     0.844006     0.713571     0.562020  Biso 1.000000     C
    C   1.0     0.246782     0.871678     0.601960  Biso 1.000000     C
    C   1.0     0.488001     0.643870     0.243216  Biso 1.000000     C
    C   1.0     0.235065     0.741188     0.476636  Biso 1.000000     C
    C   1.0     0.822481     0.925772     0.249257  Biso 1.000000     C
    C   1.0     0.737747     0.177106     0.553269  Biso 1.000000     C
    C   1.0     0.409756     0.233129     0.523790  Biso 1.000000     C
    C   1.0     0.044341     0.756975     0.258558  Biso 1.000000     C
    C   1.0     0.512020     0.356147     0.756792  Biso 1.000000     C
    C   1.0     0.218274     0.645972     0.457147  Biso 1.000000     C
    C   1.0     0.332640     0.237577     0.444361  Biso 1.000000     C
    C   1.0     0.769268     0.317385     0.107475  Biso 1.000000     C
    C   1.0     0.455649     0.743095     0.758586  Biso 1.000000     C
    C   1.0     0.844881     0.719975     0.108907  Biso 1.000000     C
    C   1.0     0.066869     0.671223     0.194501  Biso 1.000000     C
    C   1.0     0.204682     0.487568     0.800194  Biso 1.000000     C
    C   1.0     0.710632     0.170672     0.941914  Biso 1.000000     C
    C   1.0     0.167972     0.215005     0.099552  Biso 1.000000     C
    C   1.0     0.787809     0.411975     0.032051  Biso 1.000000     C
    C   1.0     0.230413     0.754215     0.528688  Biso 1.000000     C
    C   1.0     0.090286     0.266865     0.023831  Biso 1.000000     C
    C   1.0     0.167381     0.262415     0.944395  Biso 1.000000     C
    C   1.0     0.931079     0.687028     0.540117  Biso 1.000000     C
    C   1.0     0.433157     0.828781     0.694528  Biso 1.000000     C
    C   1.0     0.243229     0.272336     0.465648  Biso 1.000000     C
    C   1.0     0.326064     0.270410     0.545854  Biso 1.000000     C
    C   1.0     0.753238     0.128346     0.398048  Biso 1.000000     C
    C   1.0     0.655156     0.780029     0.608951  Biso 1.000000     C
    C   1.0     0.289404     0.829352     0.058101  Biso 1.000000     C
    C   1.0     0.909740     0.733165     0.976179  Biso 1.000000     C
    C   1.0     0.264821     0.758796     0.976658  Biso 1.000000     C
    C   1.0     0.173988     0.229578     0.045862  Biso 1.000000     C
    C   1.0     0.540402     0.266298     0.694869  Biso 1.000000     C
    C   1.0     0.769625     0.245802     0.471317  Biso 1.000000     C
    C   1.0     0.851697     0.683780     0.461389  Biso 1.000000     C
    C   1.0     0.148326     0.316245     0.538621  Biso 1.000000     C
    C   1.0     0.746821     0.371707     0.898060  Biso 1.000000     C
    C   1.0     0.762519     0.322965     0.053254  Biso 1.000000     C
    C   1.0     0.248317     0.650946     0.048765  Biso 1.000000     C
    C   1.0     0.281655     0.924951     0.518438  Biso 1.000000     C
    C   1.0     0.267316     0.099847     0.688024  Biso 1.000000     C
    C   1.0     0.544370     0.256930     0.241424  Biso 1.000000     C
    C   1.0     0.735231     0.241233     0.023352  Biso 1.000000     C
    C   1.0     0.262287     0.822924     0.446739  Biso 1.000000     C
    C   1.0     0.253208     0.628311     0.101948  Biso 1.000000     C
    C   1.0     0.251586     0.849072     0.548768  Biso 1.000000     C
    C   1.0     0.218160     0.575086     0.018431  Biso 1.000000     C
    C   1.0     0.677485     0.574255     0.749272  Biso 1.000000     C
    C   1.0     0.933151     0.328793     0.805508  Biso 1.000000     C
    C   1.0     0.239476     0.288345     0.517519  Biso 1.000000     C
    C   1.0     0.912919     0.716488     0.026378  Biso 1.000000     C
    C   1.0     0.739459     0.788374     0.982512  Biso 1.000000     C
    C   1.0     0.212239     0.588055     0.967957  Biso 1.000000     C
    C   1.0     0.826036     0.770449     0.954149  Biso 1.000000     C
    C   1.0     0.303217     0.920849     0.037891  Biso 1.000000     C
    C   1.0     0.832647     0.737611     0.055616  Biso 1.000000     C
    C   1.0     0.332093     0.284970     0.599547  Biso 1.000000     C
    C   1.0     0.155141     0.280042     0.891103  Biso 1.000000     C
    C   1.0     0.760543     0.711669     0.482490  Biso 1.000000     C
    C   1.0     0.087109     0.283541     0.973632  Biso 1.000000     C
    C   1.0     0.256802     0.227654     0.965648  Biso 1.000000     C
    C   1.0     0.230772     0.682663     0.892535  Biso 1.000000     C
    C   1.0     0.781890     0.424940     0.981577  Biso 1.000000     C
    C   1.0     0.673956     0.729609     0.454156  Biso 1.000000     C
    C   1.0     0.214865     0.980788     0.235108  Biso 1.000000     C
    C   1.0     0.667929     0.715046     0.400463  Biso 1.000000     C
    C   1.0     0.785160     0.019229     0.764901  Biso 1.000000     C
    C   1.0     0.177533     0.074244     0.750753  Biso 1.000000     C
    C   1.0     0.667381     0.762438     0.555649  Biso 1.000000     C
    C   1.0     0.459620     0.733715     0.305141  Biso 1.000000     C
    C   1.0     0.200123     0.566690     0.486964  Biso 1.000000     C
    C   1.0     0.431090     0.187015     0.959834  Biso 1.000000     C
    C   1.0     0.718369     0.075072     0.481573  Biso 1.000000     C
    C   1.0     0.564989     0.827841    -0.010550  Biso 1.000000     C
    C   1.0     0.269034     0.817310     0.392519  Biso 1.000000     C
    C   1.0     0.799894     0.433335     0.513039  Biso 1.000000     C
    C   1.0     0.748435     0.150946     0.451240  Biso 1.000000     C
    C   1.0     0.260565     0.211649     0.017500  Biso 1.000000     C
    C   1.0     0.832051     0.785016     0.900458  Biso 1.000000     C
    C   1.0     0.232754     0.400112     0.188022  Biso 1.000000     C
    C   1.0     0.295273     0.012455     0.300172  Biso 1.000000     C
    C   1.0     0.281618     0.854006     0.957180  Biso 1.000000     C
    C   1.0     0.731004     0.182715     0.607490  Biso 1.000000     C
    C   1.0     0.718409     0.146032     0.042835  Biso 1.000000     C
    C   1.0     0.344861     0.219990     0.391059  Biso 1.000000     C
    C   1.0     0.351726     0.183746     0.038568  Biso 1.000000     C
    C   1.0     0.068943     0.312998     0.459894  Biso 1.000000     C
    C   1.0     0.590265     0.766891     0.476221  Biso 1.000000     C
    C   1.0     0.704753     0.987560     0.699837  Biso 1.000000     C
    C   1.0     0.789434     0.329365     0.441915  Biso 1.000000     C
    C   1.0     0.012044     0.856195     0.743245  Biso 1.000000     C
    C   1.0     0.751721     0.349081     0.951244  Biso 1.000000     C
    C   1.0     0.656019     0.786460     0.062048  Biso 1.000000     C
    C   1.0     0.566860     0.171234     0.305479  Biso 1.000000     C
    C   1.0     0.040362     0.766342     0.805149  Biso 1.000000     C
    C   1.0     0.764950     0.258841     0.523367  Biso 1.000000     C
    C   1.0     0.435039     0.172191     0.000000  Biso 1.000000     C
    C   1.0     0.412923     0.216440     0.473572  Biso 1.000000     C
    C   1.0     0.756794     0.727686     0.534361  Biso 1.000000     C
    C   1.0     0.781766     0.354052     0.542858  Biso 1.000000     C
    C   1.0     0.299837     0.933288     0.987003  Biso 1.000000     C
    C   1.0     0.196766     0.579155     0.537869  Biso 1.000000     C
    C   1.0     0.269495     0.745798     0.028693  Biso 1.000000     C
    C   1.0     0.065017     0.327800     0.510627  Biso 1.000000     C
    C   1.0     0.795346     0.512448     0.199819  Biso 1.000000     C
    C   1.0     0.959657     0.233672     0.194860  Biso 1.000000     C
    C   1.0     0.803270     0.420865     0.462134  Biso 1.000000     C
    C   1.0     0.955680     0.243046     0.741450  Biso 1.000000     C
    C   1.0     0.322530     0.425763     0.250740  Biso 1.000000     C
    C   1.0     0.156013     0.286444     0.437991  Biso 1.000000     C
    C   1.0     0.987972     0.143816     0.256764  Biso 1.000000     C
    C   1.0     0.743227     0.772379     0.034365  Biso 1.000000     C
    C   1.0     0.935005     0.672218     0.489384  Biso 1.000000     C
    C   1.0     0.568939     0.813023     0.040178  Biso 1.000000     C
    C   1.0     0.287533     0.911960     0.467945  Biso 1.000000     C
    C   1.0     0.648302     0.816290     0.961444  Biso 1.000000     C
    C   1.0     0.696797     0.079181     0.962127  Biso 1.000000     C
    C   1.0     0.767264     0.599905     0.811988  Biso 1.000000     C
    C   1.0     0.210579     0.670658     0.558090  Biso 1.000000     C
    C   1.0     0.700203     0.066745     0.013015  Biso 1.000000     C
    C   1.0     0.732702     0.900169     0.311987  Biso 1.000000     C
    C   1.0     0.344007     0.213567     0.937963  Biso 1.000000     C
    C   1.0     0.712500     0.088067     0.532067  Biso 1.000000     C
    C   1.0     0.714907     0.480806     0.264886  Biso 1.000000     C
    C   1.0     0.237523     0.677068     0.946756  Biso 1.000000     C
    C   1.0     0.285119     0.519210     0.735127  Biso 1.000000     C
    C   1.0     0.730527     0.254235     0.971318  Biso 1.000000     C
    C   1.0     0.587097     0.783575     0.526439  Biso 1.000000     C
    N   1.0     0.345424     0.818886     0.716017  Biso 1.000000     N
    N   1.0     0.125197     0.775168     0.781098  Biso 1.000000     N
    N   1.0     0.859912     0.263434     0.742712  Biso 1.000000     N
    N   1.0     0.281430     0.472317     0.212380  Biso 1.000000     N
    N   1.0     0.004227     0.282004     0.780029  Biso 1.000000     N
    N   1.0     0.198301     0.169841     0.750282  Biso 1.000000     N
    N   1.0     0.495791     0.217992     0.279998  Biso 1.000000     N
    N   1.0     0.718587     0.527700     0.787631  Biso 1.000000     N
    N   1.0     0.640141     0.236558     0.242690  Biso 1.000000     N
    N   1.0     0.232700     0.077062     0.234731  Biso 1.000000     N
    N   1.0     0.752446     0.437482     0.224648  Biso 1.000000     N
    N   1.0     0.995794     0.718015     0.219979  Biso 1.000000     N
    N   1.0     0.781372     0.972355     0.287621  Biso 1.000000     N
    N   1.0     0.247583     0.562534     0.775365  Biso 1.000000     N
    N   1.0     0.784495     0.597204     0.223117  Biso 1.000000     N
    N   1.0     0.243656     0.313647     0.209889  Biso 1.000000     N
    N   1.0     0.743619     0.813686     0.290118  Biso 1.000000     N
    N   1.0     0.747660     0.062516     0.724659  Biso 1.000000     N
    N   1.0     0.874820     0.224845     0.218910  Biso 1.000000     N
    N   1.0     0.607363     0.333291     0.759017  Biso 1.000000     N
    N   1.0     0.392657     0.666725     0.240992  Biso 1.000000     N
    N   1.0     0.767322     0.922956     0.765280  Biso 1.000000     N
    N   1.0     0.256400     0.186329     0.709893  Biso 1.000000     N
    N   1.0     0.504227     0.782029     0.720011  Biso 1.000000     N
    N   1.0     0.698262     0.669852     0.749740  Biso 1.000000     N
    N   1.0     0.215529     0.402811     0.776895  Biso 1.000000     N
    N   1.0     0.301752     0.330166     0.250272  Biso 1.000000     N
    N   1.0     0.715565     0.902828     0.723141  Biso 1.000000     N
    N   1.0     0.625213     0.275130     0.718929  Biso 1.000000     N
    N   1.0     0.218643     0.027661     0.712388  Biso 1.000000     N
    N   1.0     0.756361     0.686371     0.790122  Biso 1.000000     N
    N   1.0     0.140109     0.736585     0.257296  Biso 1.000000     N
    N   1.0     0.732719     0.577114     0.265258  Biso 1.000000     N
    N   1.0     0.967388     0.816320     0.782807  Biso 1.000000     N
    N   1.0     0.845436     0.318897     0.784012  Biso 1.000000     N
    N   1.0     0.032629     0.183693     0.217203  Biso 1.000000     N
    N   1.0     0.532626     0.683745     0.282791  Biso 1.000000     N
    N   1.0     0.801716     0.830175     0.249728  Biso 1.000000     N
    N   1.0     0.284457     0.097189     0.276870  Biso 1.000000     N
    N   1.0     0.107387     0.833332     0.741022  Biso 1.000000     N
    N   1.0     0.267305     0.422902     0.734755  Biso 1.000000     N
    N   1.0     0.359877     0.763462     0.757319  Biso 1.000000     N
    N   1.0     0.252368     0.937500     0.275349  Biso 1.000000     N
    N   1.0     0.154584     0.681119     0.215997  Biso 1.000000     N
    N   1.0     0.892629     0.166680     0.258986  Biso 1.000000     N
    N   1.0     0.654592     0.181130     0.283990  Biso 1.000000     N
    N   1.0     0.467395     0.316269     0.717217  Biso 1.000000     N
    N   1.0     0.374808     0.724883     0.281081  Biso 1.000000     N
    O   1.0     0.891697     0.646460     0.123560  Biso 1.000000     O
    O   1.0     0.283425     0.353666     0.621262  Biso 1.000000     O
    O   1.0     0.807297     0.432006     0.879708  Biso 1.000000     O
    O   1.0     0.179318     0.829564     0.628721  Biso 1.000000     O
    O   1.0     0.200182     0.772172     0.368066  Biso 1.000000     O
    O   1.0     0.799842     0.227877     0.631941  Biso 1.000000     O
    O   1.0     0.391691     0.146504     0.376349  Biso 1.000000     O
    O   1.0     0.340351     0.858611     0.371058  Biso 1.000000     O
    O   1.0     0.691376     0.716775     0.639358  Biso 1.000000     O
    O   1.0     0.216627     0.146292     0.121237  Biso 1.000000     O
    O   1.0     0.679361     0.329550     0.871313  Biso 1.000000     O
    O   1.0     0.783394     0.853727     0.878774  Biso 1.000000     O
    O   1.0     0.700275     0.272441     0.131925  Biso 1.000000     O
    O   1.0     0.108321     0.353553     0.876447  Biso 1.000000     O
    O   1.0     0.808684     0.783219     0.139350  Biso 1.000000     O
    O   1.0     0.320661     0.670468     0.128699  Biso 1.000000     O
    O   1.0     0.840679     0.358520     0.128929  Biso 1.000000     O
    O   1.0     0.192728     0.568010     0.120297  Biso 1.000000     O
    O   1.0     0.308640     0.283246     0.360653  Biso 1.000000     O
    O   1.0     0.613216     0.771174     0.375897  Biso 1.000000     O
    O   1.0     0.692681     0.068114     0.379704  Biso 1.000000     O
    O   1.0     0.191339     0.216796     0.860663  Biso 1.000000     O
    O   1.0     0.159376     0.641499     0.871081  Biso 1.000000     O
    O   1.0     0.716596     0.646348     0.378749  Biso 1.000000     O
    O   1.0     0.608327     0.853517     0.623658  Biso 1.000000     O
    O   1.0     0.113275     0.271137     0.124148  Biso 1.000000     O
    O   1.0     0.299743     0.727638     0.868085  Biso 1.000000     O
    O   1.0     0.307337     0.931911     0.620304  Biso 1.000000     O
    O   1.0     0.659701     0.141397     0.628953  Biso 1.000000     O
    O   1.0     0.886745     0.728883     0.875862  Biso 1.000000     O
    O   1.0     0.820705     0.170455     0.371287  Biso 1.000000     O
    O   1.0     0.386806     0.228840     0.624111  Biso 1.000000     O
   Zn   1.0     0.324828     0.315533     0.689977  Biso 1.000000    Zn
   Zn   1.0     0.750197     0.204584     0.699799  Biso 1.000000    Zn
   Zn   1.0     0.675190     0.684481     0.310034  Biso 1.000000    Zn
   Zn   1.0     0.150227     0.275112     0.797792  Biso 1.000000    Zn
   Zn   1.0     0.175206     0.184427     0.189969  Biso 1.000000    Zn
   Zn   1.0     0.783179     0.117270     0.306227  Biso 1.000000    Zn
   Zn   1.0     0.749855     0.295413     0.199793  Biso 1.000000    Zn
   Zn   1.0     0.250164     0.704607     0.800219  Biso 1.000000    Zn
   Zn   1.0     0.349784     0.224893     0.297770  Biso 1.000000    Zn
   Zn   1.0     0.824813     0.815591     0.810042  Biso 1.000000    Zn
   Zn   1.0     0.650235     0.775124     0.702242  Biso 1.000000    Zn
   Zn   1.0     0.849791     0.724904     0.202221  Biso 1.000000    Zn
   Zn   1.0     0.716827     0.382756     0.806245  Biso 1.000000    Zn
   Zn   1.0     0.216838     0.882746     0.693783  Biso 1.000000    Zn
   Zn   1.0     0.249825     0.795433     0.300210  Biso 1.000000    Zn
   Zn   1.0     0.283193     0.617260     0.193766  Biso 1.000000    Zn
