#======================================================================

# CRYSTAL DATA

#----------------------------------------------------------------------

data_VESTA_phase_1


_pd_phase_name                         MOF
_cell_length_a                         23.66500
_cell_length_b                         15.63400
_cell_length_c                         15.90800
_cell_angle_alpha                      90.01000
_cell_angle_beta                       90.05500
_cell_angle_gamma                      90.00300
_symmetry_space_group_name_H-M         "P 1"
_symmetry_Int_Tables_number            1

loop_
_symmetry_equiv_pos_as_xyz
   "x, y, z"

loop_
   _atom_site_label
   _atom_site_occupancy
   _atom_site_fract_x
   _atom_site_fract_y
   _atom_site_fract_z
   _atom_site_adp_type
   _atom_site_B_iso_or_equiv
   _atom_site_type_symbol
    H   1.0     0.400766     0.330736     0.608906  Biso 1.000000     H
    H   1.0     0.902490     0.331576     0.607795  Biso 1.000000     H
    H   1.0     0.172524     0.493511     0.727149  Biso 1.000000     H
    H   1.0     0.672930     0.494944     0.726741  Biso 1.000000     H
    H   1.0     0.099813     0.131641     0.634428  Biso 1.000000     H
    H   1.0     0.600928     0.130963     0.634077  Biso 1.000000     H
    H   1.0     0.173764     0.494072     0.886242  Biso 1.000000     H
    H   1.0     0.673827     0.495689     0.885847  Biso 1.000000     H
    H   1.0     0.397351     0.000630     0.472050  Biso 1.000000     H
    H   1.0     0.897644     0.000418     0.470414  Biso 1.000000     H
    H   1.0     0.165814     0.741981     0.627204  Biso 1.000000     H
    H   1.0     0.665173     0.741262     0.628914  Biso 1.000000     H
    H   1.0     0.339143     0.262112     0.364405  Biso 1.000000     H
    H   1.0     0.838290     0.261537     0.365198  Biso 1.000000     H
    H   1.0     0.399985     0.131545     0.365748  Biso 1.000000     H
    H   1.0     0.899048     0.130821     0.365889  Biso 1.000000     H
    H   1.0     0.405560     0.666751     0.609033  Biso 1.000000     H
    H   1.0     0.905309     0.668251     0.608859  Biso 1.000000     H
    H   1.0     0.395018     0.872252     0.371588  Biso 1.000000     H
    H   1.0     0.896040     0.871526     0.369386  Biso 1.000000     H
    H   1.0     0.094483     0.667077     0.390572  Biso 1.000000     H
    H   1.0     0.594961     0.668081     0.390999  Biso 1.000000     H
    H   1.0     0.144397     0.509209     0.126124  Biso 1.000000     H
    H   1.0     0.644433     0.507430     0.126450  Biso 1.000000     H
    H   1.0     0.355560     0.507743     0.873471  Biso 1.000000     H
    H   1.0     0.855733     0.506614     0.873924  Biso 1.000000     H
    H   1.0     0.333901     0.742043     0.372778  Biso 1.000000     H
    H   1.0     0.834837     0.741294     0.371113  Biso 1.000000     H
    H   1.0     0.326199     0.495073     0.114109  Biso 1.000000     H
    H   1.0     0.826299     0.495966     0.113848  Biso 1.000000     H
    H   1.0     0.104763     0.872308     0.628399  Biso 1.000000     H
    H   1.0     0.604026     0.871446     0.630427  Biso 1.000000     H
    H   1.0     0.152864     0.508268     0.285234  Biso 1.000000     H
    H   1.0     0.653155     0.507073     0.285535  Biso 1.000000     H
    H   1.0     0.034481     0.204398     0.392183  Biso 1.000000     H
    H   1.0     0.533627     0.205284     0.393474  Biso 1.000000     H
    H   1.0     0.346721     0.508695     0.714396  Biso 1.000000     H
    H   1.0     0.847265     0.506888     0.714812  Biso 1.000000     H
    H   1.0     0.465178     0.204730     0.607977  Biso 1.000000     H
    H   1.0     0.966498     0.205081     0.606457  Biso 1.000000     H
    H   1.0     0.030935     0.794046     0.393223  Biso 1.000000     H
    H   1.0     0.531084     0.794602     0.394207  Biso 1.000000     H
    H   1.0     0.327088     0.493147     0.273208  Biso 1.000000     H
    H   1.0     0.827456     0.494735     0.272916  Biso 1.000000     H
    H   1.0     0.098586     0.330848     0.391318  Biso 1.000000     H
    H   1.0     0.597837     0.331499     0.392084  Biso 1.000000     H
    H   1.0     0.469125     0.793644     0.606429  Biso 1.000000     H
    H   1.0     0.969173     0.794887     0.605516  Biso 1.000000     H
    H   1.0     0.102607     0.000742     0.528169  Biso 1.000000     H
    H   1.0     0.602316     0.000506     0.529261  Biso 1.000000     H
    H   1.0     0.160351     0.262641     0.635819  Biso 1.000000     H
    H   1.0     0.661839     0.261452     0.634770  Biso 1.000000     H
    C   1.0     0.185339     0.505852     0.157260  Biso 1.000000     C
    C   1.0     0.685448     0.504803     0.157442  Biso 1.000000     C
    C   1.0     0.063725     0.842441     0.510689  Biso 1.000000     C
    C   1.0     0.563392     0.842319     0.512234  Biso 1.000000     C
    C   1.0     0.366132     0.304377     0.486634  Biso 1.000000     C
    C   1.0     0.866664     0.304481     0.486475  Biso 1.000000     C
    C   1.0     0.439425     0.782660     0.555151  Biso 1.000000     C
    C   1.0     0.939641     0.783427     0.554124  Biso 1.000000     C
    C   1.0     0.287894     0.497097     0.237369  Biso 1.000000     C
    C   1.0     0.788167     0.497857     0.237230  Biso 1.000000     C
    C   1.0     0.404252     0.711512     0.556626  Biso 1.000000     C
    C   1.0     0.904349     0.712464     0.555990  Biso 1.000000     C
    C   1.0     0.397727     0.826869     0.423545  Biso 1.000000     C
    C   1.0     0.898501     0.826535     0.421697  Biso 1.000000     C
    C   1.0     0.442953     0.000512     0.482179  Biso 1.000000     C
    C   1.0     0.943237     0.000456     0.480616  Biso 1.000000     C
    C   1.0     0.189777     0.505136     0.244436  Biso 1.000000     C
    C   1.0     0.690023     0.504428     0.244614  Biso 1.000000     C
    C   1.0     0.363552     0.754274     0.423820  Biso 1.000000     C
    C   1.0     0.864291     0.754002     0.422292  Biso 1.000000     C
    C   1.0     0.470481     0.921716     0.491789  Biso 1.000000     C
    C   1.0     0.970892     0.921792     0.490053  Biso 1.000000     C
    C   1.0     0.063166     0.158845     0.513015  Biso 1.000000     C
    C   1.0     0.563192     0.158827     0.513519  Biso 1.000000     C
    C   1.0     0.060575     0.782936     0.444544  Biso 1.000000     C
    C   1.0     0.560572     0.783246     0.445677  Biso 1.000000     C
    C   1.0     0.102115     0.826963     0.576390  Biso 1.000000     C
    C   1.0     0.601582     0.826446     0.578105  Biso 1.000000     C
    C   1.0     0.211801     0.497162     0.762819  Biso 1.000000     C
    C   1.0     0.712154     0.497877     0.762601  Biso 1.000000     C
    C   1.0     0.366662     0.248578     0.417733  Biso 1.000000     C
    C   1.0     0.866345     0.248201     0.417947  Biso 1.000000     C
    C   1.0     0.029278     0.079188     0.508947  Biso 1.000000     C
    C   1.0     0.529120     0.079247     0.509860  Biso 1.000000     C
    C   1.0     0.057018     0.000567     0.517925  Biso 1.000000     C
    C   1.0     0.556713     0.000488     0.519142  Biso 1.000000     C
    C   1.0     0.436239     0.842294     0.489129  Biso 1.000000     C
    C   1.0     0.936712     0.842394     0.487528  Biso 1.000000     C
    C   1.0     0.029513     0.921817     0.508106  Biso 1.000000     C
    C   1.0     0.529126     0.921725     0.509705  Biso 1.000000     C
    C   1.0     0.098977     0.175951     0.581446  Biso 1.000000     C
    C   1.0     0.599701     0.175477     0.581275  Biso 1.000000     C
    C   1.0     0.265176     0.501260     0.890819  Biso 1.000000     C
    C   1.0     0.765283     0.501374     0.890845  Biso 1.000000     C
    C   1.0     0.287244     0.497886     0.150247  Biso 1.000000     C
    C   1.0     0.787386     0.498345     0.150114  Biso 1.000000     C
    C   1.0     0.437335     0.216895     0.554682  Biso 1.000000     C
    C   1.0     0.938233     0.217096     0.553635  Biso 1.000000     C
    C   1.0     0.314536     0.504949     0.842518  Biso 1.000000     C
    C   1.0     0.814766     0.504269     0.842770  Biso 1.000000     C
    C   1.0     0.212637     0.497252     0.849939  Biso 1.000000     C
    C   1.0     0.712803     0.498120     0.849729  Biso 1.000000     C
    C   1.0     0.400730     0.175824     0.418775  Biso 1.000000     C
    C   1.0     0.900325     0.175384     0.418662  Biso 1.000000     C
    C   1.0     0.062278     0.216800     0.445477  Biso 1.000000     C
    C   1.0     0.561893     0.217216     0.446323  Biso 1.000000     C
    C   1.0     0.470630     0.079235     0.491169  Biso 1.000000     C
    C   1.0     0.970814     0.079166     0.490071  Biso 1.000000     C
    C   1.0     0.097596     0.287750     0.445072  Biso 1.000000     C
    C   1.0     0.597350     0.288060     0.445592  Biso 1.000000     C
    C   1.0     0.132841     0.248910     0.582524  Biso 1.000000     C
    C   1.0     0.633808     0.248186     0.581970  Biso 1.000000     C
    C   1.0     0.436609     0.158852     0.487173  Biso 1.000000     C
    C   1.0     0.936813     0.158732     0.486419  Biso 1.000000     C
    C   1.0     0.326598     0.621346     0.494756  Biso 1.000000     C
    C   1.0     0.826874     0.622137     0.494292  Biso 1.000000     C
    C   1.0     0.136242     0.754355     0.576105  Biso 1.000000     C
    C   1.0     0.635795     0.753883     0.577618  Biso 1.000000     C
    C   1.0     0.095726     0.711786     0.443041  Biso 1.000000     C
    C   1.0     0.595895     0.712281     0.443900  Biso 1.000000     C
    C   1.0     0.365934     0.696392     0.490985  Biso 1.000000     C
    C   1.0     0.866337     0.696885     0.490081  Biso 1.000000     C
    C   1.0     0.133168     0.304664     0.513623  Biso 1.000000     C
    C   1.0     0.633650     0.304455     0.513434  Biso 1.000000     C
    C   1.0     0.133908     0.696606     0.508815  Biso 1.000000     C
    C   1.0     0.633854     0.696648     0.509884  Biso 1.000000     C
    C   1.0     0.326087     0.378566     0.489594  Biso 1.000000     C
    C   1.0     0.826942     0.378966     0.489678  Biso 1.000000     C
    C   1.0     0.401806     0.287648     0.555125  Biso 1.000000     C
    C   1.0     0.902926     0.288061     0.554336  Biso 1.000000     C
    C   1.0     0.234791     0.502281     0.109160  Biso 1.000000     C
    C   1.0     0.734848     0.501836     0.109185  Biso 1.000000     C
    C   1.0     0.309905     0.505167     0.755356  Biso 1.000000     C
    C   1.0     0.810328     0.504220     0.755593  Biso 1.000000     C
    C   1.0     0.173181     0.621580     0.505205  Biso 1.000000     C
    C   1.0     0.673337     0.621793     0.505799  Biso 1.000000     C
    C   1.0     0.173003     0.379002     0.510536  Biso 1.000000     C
    C   1.0     0.673550     0.378845     0.510337  Biso 1.000000     C
    N   1.0     0.259501     0.501199     0.716370  Biso 1.000000     N
    N   1.0     0.759987     0.500970     0.716382  Biso 1.000000     N
    N   1.0     0.227001     0.503137     0.020674  Biso 1.000000     N
    N   1.0     0.726982     0.502315     0.020695  Biso 1.000000     N
    N   1.0     0.273065     0.501242     0.979294  Biso 1.000000     N
    N   1.0     0.773066     0.501541     0.979331  Biso 1.000000     N
    N   1.0     0.240092     0.500766     0.283621  Biso 1.000000     N
    N   1.0     0.740420     0.500925     0.283641  Biso 1.000000     N
    O   1.0     0.189918     0.410533     0.580099  Biso 1.000000     O
    O   1.0     0.692664     0.407366     0.579927  Biso 1.000000     O
    O   1.0     0.311326     0.403607     0.562583  Biso 1.000000     O
    O   1.0     0.814735     0.407168     0.562587  Biso 1.000000     O
    O   1.0     0.197848     0.599960     0.573345  Biso 1.000000     O
    O   1.0     0.696531     0.597700     0.574304  Biso 1.000000     O
    O   1.0     0.309132     0.409866     0.419949  Biso 1.000000     O
    O   1.0     0.807694     0.407443     0.420157  Biso 1.000000     O
    O   1.0     0.320512     0.585314     0.566040  Biso 1.000000     O
    O   1.0     0.819238     0.588677     0.566407  Biso 1.000000     O
    O   1.0     0.179717     0.585845     0.433871  Biso 1.000000     O
    O   1.0     0.681446     0.588782     0.433598  Biso 1.000000     O
    O   1.0     0.301446     0.600005     0.426902  Biso 1.000000     O
    O   1.0     0.803226     0.598582     0.425954  Biso 1.000000     O
    O   1.0     0.187624     0.403888     0.437441  Biso 1.000000     O
    O   1.0     0.686068     0.406875     0.437479  Biso 1.000000     O
   Zn   1.0     0.254447     0.500225     0.586355  Biso 1.000000    Zn
   Zn   1.0     0.755307     0.500278     0.586364  Biso 1.000000    Zn
   Zn   1.0     0.244802     0.500010     0.413646  Biso 1.000000    Zn
   Zn   1.0     0.745402     0.500287     0.413677  Biso 1.000000    Zn
