#======================================================================

# CRYSTAL DATA

#----------------------------------------------------------------------

data_VESTA_phase_1


_pd_phase_name                         MOF
_cell_length_a                         13.18800
_cell_length_b                         13.20000
_cell_length_c                         23.33900
_cell_angle_alpha                      90.00700
_cell_angle_beta                       89.99900
_cell_angle_gamma                      90.45000
_symmetry_space_group_name_H-M         "P 1"
_symmetry_Int_Tables_number            1

loop_
_symmetry_equiv_pos_as_xyz
   "x, y, z"

loop_
   _atom_site_label
   _atom_site_occupancy
   _atom_site_fract_x
   _atom_site_fract_y
   _atom_site_fract_z
   _atom_site_adp_type
   _atom_site_B_iso_or_equiv
   _atom_site_type_symbol
    H   1.0     0.603590     0.380956     0.889192  Biso 1.000000     H
    H   1.0     0.752302     0.333487     0.694486  Biso 1.000000     H
    H   1.0     0.564883     0.350487     0.707813  Biso 1.000000     H
    H   1.0     0.778300     0.378523     0.931618  Biso 1.000000     H
    H   1.0     0.965128     0.362618     0.918289  Biso 1.000000     H
    H   1.0     0.925719     0.330881     0.736663  Biso 1.000000     H
    H   1.0     0.279399     0.021739     0.886883  Biso 1.000000     H
    H   1.0     0.258759     0.861176     0.693710  Biso 1.000000     H
    H   1.0     0.272469     0.048993     0.703814  Biso 1.000000     H
    H   1.0     0.268338     0.850517     0.932477  Biso 1.000000     H
    H   1.0     0.254260     0.662926     0.922478  Biso 1.000000     H
    H   1.0     0.245916     0.690273     0.739275  Biso 1.000000     H
    H   1.0     0.194232     0.193113     0.944837  Biso 1.000000     H
    H   1.0     0.173216     0.142483     0.047821  Biso 1.000000     H
    H   1.0     0.246261     0.254123     0.124031  Biso 1.000000     H
    H   1.0     0.386605     0.484950     0.940380  Biso 1.000000     H
    H   1.0     0.462889     0.600181     0.013080  Biso 1.000000     H
    H   1.0     0.436996     0.566796     0.117292  Biso 1.000000     H
    H   1.0     0.058002     0.438062     0.239649  Biso 1.000000     H
    H   1.0     0.025320     0.401970     0.343913  Biso 1.000000     H
    H   1.0     0.553969     0.337562     0.278045  Biso 1.000000     H
    H   1.0     0.522957     0.308422     0.382536  Biso 1.000000     H
    H   1.0     0.153366     0.156193     0.494756  Biso 1.000000     H
    H   1.0     0.114655     0.110527     0.596243  Biso 1.000000     H
    H   1.0     0.166701     0.225276     0.675552  Biso 1.000000     H
    H   1.0     0.319334     0.482149     0.506413  Biso 1.000000     H
    H   1.0     0.373463     0.589799     0.589845  Biso 1.000000     H
    H   1.0     0.336186     0.530237     0.688568  Biso 1.000000     H
    H   1.0     0.396426     0.619047     0.389200  Biso 1.000000     H
    H   1.0     0.247726     0.666478     0.194498  Biso 1.000000     H
    H   1.0     0.435145     0.649483     0.207824  Biso 1.000000     H
    H   1.0     0.221713     0.621486     0.431626  Biso 1.000000     H
    H   1.0     0.034886     0.637386     0.418298  Biso 1.000000     H
    H   1.0     0.074306     0.669087     0.236674  Biso 1.000000     H
    H   1.0     0.720613     0.978283     0.386898  Biso 1.000000     H
    H   1.0     0.741271     0.138744     0.193719  Biso 1.000000     H
    H   1.0     0.727559     0.950933     0.203830  Biso 1.000000     H
    H   1.0     0.731670     0.149529     0.432486  Biso 1.000000     H
    H   1.0     0.745752     0.337114     0.422481  Biso 1.000000     H
    H   1.0     0.754110     0.309672     0.239279  Biso 1.000000     H
    H   1.0     0.805737     0.806905     0.444871  Biso 1.000000     H
    H   1.0     0.826753     0.857547     0.547848  Biso 1.000000     H
    H   1.0     0.753734     0.745890     0.624046  Biso 1.000000     H
    H   1.0     0.613408     0.515037     0.440378  Biso 1.000000     H
    H   1.0     0.537156     0.399800     0.513053  Biso 1.000000     H
    H   1.0     0.563053     0.433185     0.617268  Biso 1.000000     H
    H   1.0     0.942019     0.561917     0.739636  Biso 1.000000     H
    H   1.0     0.974702     0.598003     0.843905  Biso 1.000000     H
    H   1.0     0.446050     0.662403     0.778061  Biso 1.000000     H
    H   1.0     0.477062     0.691526     0.882557  Biso 1.000000     H
    H   1.0     0.846669     0.843755     0.994789  Biso 1.000000     H
    H   1.0     0.885406     0.889416     0.096294  Biso 1.000000     H
    H   1.0     0.833365     0.774664     0.175586  Biso 1.000000     H
    H   1.0     0.680716     0.517803     0.006413  Biso 1.000000     H
    H   1.0     0.626594     0.410146     0.089831  Biso 1.000000     H
    H   1.0     0.663863     0.469713     0.188563  Biso 1.000000     H
    C   1.0     0.461712     0.373859     0.806365  Biso 1.000000     C
    C   1.0     0.574564     0.367610     0.799462  Biso 1.000000     C
    C   1.0     0.637477     0.371753     0.846906  Biso 1.000000     C
    C   1.0     0.743757     0.362701     0.841155  Biso 1.000000     C
    C   1.0     0.786036     0.347957     0.785006  Biso 1.000000     C
    C   1.0     0.719761     0.344118     0.737032  Biso 1.000000     C
    C   1.0     0.616731     0.354120     0.744066  Biso 1.000000     C
    C   1.0     0.810401     0.367399     0.888969  Biso 1.000000     C
    C   1.0     0.913516     0.358180     0.881955  Biso 1.000000     C
    C   1.0     0.955385     0.344784     0.826438  Biso 1.000000     C
    C   1.0     0.892290     0.339804     0.779072  Biso 1.000000     C
    C   1.0     0.247185     0.552866     0.824541  Biso 1.000000     C
    C   1.0     0.280024     0.159080     0.801782  Biso 1.000000     C
    C   1.0     0.275452     0.045776     0.796373  Biso 1.000000     C
    C   1.0     0.274197     0.985628     0.844965  Biso 1.000000     C
    C   1.0     0.266020     0.878943     0.840961  Biso 1.000000     C
    C   1.0     0.259375     0.833015     0.785213  Biso 1.000000     C
    C   1.0     0.262443     0.896398     0.735986  Biso 1.000000     C
    C   1.0     0.270102     0.999998     0.741334  Biso 1.000000     C
    C   1.0     0.263659     0.815502     0.890180  Biso 1.000000     C
    C   1.0     0.255974     0.711877     0.884933  Biso 1.000000     C
    C   1.0     0.249937     0.666202     0.829873  Biso 1.000000     C
    C   1.0     0.250805     0.726341     0.781229  Biso 1.000000     C
    C   1.0     0.068213     0.339261     0.819164  Biso 1.000000     C
    C   1.0     0.226603     0.239066     0.979186  Biso 1.000000     C
    C   1.0     0.214692     0.211535     0.037035  Biso 1.000000     C
    C   1.0     0.255145     0.273235     0.078894  Biso 1.000000     C
    C   1.0     0.308706     0.362151     0.063120  Biso 1.000000     C
    C   1.0     0.320833     0.383761     0.000000  Biso 1.000000     C
    C   1.0     0.377497     0.470036     0.985928  Biso 1.000000     C
    C   1.0     0.419043     0.533978     0.026530  Biso 1.000000     C
    C   1.0     0.404903     0.515199     0.085602  Biso 1.000000     C
    C   1.0     0.350871     0.431405     0.103473  Biso 1.000000     C
    C   1.0     0.418363     0.383695     0.197404  Biso 1.000000     C
    C   1.0     0.234778     0.431256     0.184648  Biso 1.000000     C
    C   1.0     0.217089     0.408114     0.245692  Biso 1.000000     C
    C   1.0     0.119558     0.415788     0.267958  Biso 1.000000     C
    C   1.0     0.101376     0.396194     0.326096  Biso 1.000000     C
    C   1.0     0.180797     0.370158     0.362284  Biso 1.000000     C
    C   1.0     0.280878     0.362243     0.340743  Biso 1.000000     C
    C   1.0     0.299067     0.380439     0.281407  Biso 1.000000     C
    C   1.0     0.398613     0.370286     0.259410  Biso 1.000000     C
    C   1.0     0.478058     0.345024     0.295714  Biso 1.000000     C
    C   1.0     0.460588     0.328635     0.354285  Biso 1.000000     C
    C   1.0     0.363208     0.336260     0.376771  Biso 1.000000     C
    C   1.0     0.345844     0.315336     0.438300  Biso 1.000000     C
    C   1.0     0.159466     0.350147     0.423440  Biso 1.000000     C
    C   1.0     0.224150     0.296912     0.516673  Biso 1.000000     C
    C   1.0     0.175460     0.207067     0.529401  Biso 1.000000     C
    C   1.0     0.153762     0.181654     0.586863  Biso 1.000000     C
    C   1.0     0.181857     0.245175     0.631092  Biso 1.000000     C
    C   1.0     0.233121     0.337261     0.618975  Biso 1.000000     C
    C   1.0     0.253670     0.365256     0.560727  Biso 1.000000     C
    C   1.0     0.303346     0.458839     0.550287  Biso 1.000000     C
    C   1.0     0.332556     0.518670     0.595724  Biso 1.000000     C
    C   1.0     0.311955     0.485390     0.651854  Biso 1.000000     C
    C   1.0     0.538309     0.626125     0.306373  Biso 1.000000     C
    C   1.0     0.425458     0.632376     0.299471  Biso 1.000000     C
    C   1.0     0.362542     0.628241     0.346915  Biso 1.000000     C
    C   1.0     0.256262     0.637291     0.341164  Biso 1.000000     C
    C   1.0     0.213987     0.652024     0.285017  Biso 1.000000     C
    C   1.0     0.280264     0.655855     0.237044  Biso 1.000000     C
    C   1.0     0.383294     0.645857     0.244076  Biso 1.000000     C
    C   1.0     0.189615     0.632601     0.388979  Biso 1.000000     C
    C   1.0     0.086500     0.641818     0.381964  Biso 1.000000     C
    C   1.0     0.044635     0.655203     0.326449  Biso 1.000000     C
    C   1.0     0.107732     0.660173     0.279083  Biso 1.000000     C
    C   1.0     0.752835     0.447122     0.324545  Biso 1.000000     C
    C   1.0     0.719996     0.840898     0.301798  Biso 1.000000     C
    C   1.0     0.724567     0.954200     0.296389  Biso 1.000000     C
    C   1.0     0.725818     0.014372     0.344979  Biso 1.000000     C
    C   1.0     0.733996     0.121055     0.340971  Biso 1.000000     C
    C   1.0     0.740647     0.166954     0.285221  Biso 1.000000     C
    C   1.0     0.737583     0.103545     0.235996  Biso 1.000000     C
    C   1.0     0.729923    -0.000052     0.241349  Biso 1.000000     C
    C   1.0     0.736354     0.184521     0.390188  Biso 1.000000     C
    C   1.0     0.744041     0.288143     0.384938  Biso 1.000000     C
    C   1.0     0.750082     0.333790     0.329876  Biso 1.000000     C
    C   1.0     0.749218     0.273625     0.281234  Biso 1.000000     C
    C   1.0     0.931807     0.660725     0.319175  Biso 1.000000     C
    C   1.0     0.773374     0.760945     0.479214  Biso 1.000000     C
    C   1.0     0.785290     0.788486     0.537054  Biso 1.000000     C
    C   1.0     0.744851     0.726777     0.578906  Biso 1.000000     C
    C   1.0     0.691306     0.637853     0.563121  Biso 1.000000     C
    C   1.0     0.679170     0.616234     0.503290  Biso 1.000000     C
    C   1.0     0.622519     0.529951     0.485929  Biso 1.000000     C
    C   1.0     0.580993     0.466010     0.526510  Biso 1.000000     C
    C   1.0     0.595136     0.484788     0.585585  Biso 1.000000     C
    C   1.0     0.649156     0.568590     0.603465  Biso 1.000000     C
    C   1.0     0.581661     0.616292     0.697405  Biso 1.000000     C
    C   1.0     0.765246     0.568731     0.684641  Biso 1.000000     C
    C   1.0     0.782932     0.591865     0.745688  Biso 1.000000     C
    C   1.0     0.880464     0.584189     0.767950  Biso 1.000000     C
    C   1.0     0.898646     0.603779     0.826091  Biso 1.000000     C
    C   1.0     0.819225     0.629810     0.862284  Biso 1.000000     C
    C   1.0     0.719142     0.637724     0.840748  Biso 1.000000     C
    C   1.0     0.700953     0.619535     0.781409  Biso 1.000000     C
    C   1.0     0.601407     0.629689     0.759415  Biso 1.000000     C
    C   1.0     0.521962     0.654941     0.795726  Biso 1.000000     C
    C   1.0     0.539433     0.671321     0.854300  Biso 1.000000     C
    C   1.0     0.636813     0.663700     0.876783  Biso 1.000000     C
    C   1.0     0.654181     0.684624     0.938315  Biso 1.000000     C
    C   1.0     0.840558     0.649819     0.923442  Biso 1.000000     C
    C   1.0     0.775891     0.703045     0.016699  Biso 1.000000     C
    C   1.0     0.824586     0.792887     0.029440  Biso 1.000000     C
    C   1.0     0.846293     0.818293     0.086904  Biso 1.000000     C
    C   1.0     0.818199     0.754770     0.131124  Biso 1.000000     C
    C   1.0     0.766929     0.662688     0.118994  Biso 1.000000     C
    C   1.0     0.746376     0.634696     0.060744  Biso 1.000000     C
    C   1.0     0.696703     0.541112     0.050291  Biso 1.000000     C
    C   1.0     0.667497     0.481277     0.095719  Biso 1.000000     C
    C   1.0     0.688094     0.514559     0.151854  Biso 1.000000     C
    N   1.0     0.277704     0.321400     0.962621  Biso 1.000000     N
    N   1.0     0.334538     0.413673     0.163791  Biso 1.000000     N
    N   1.0     0.244406     0.322197     0.457552  Biso 1.000000     N
    N   1.0     0.263583     0.398817     0.663423  Biso 1.000000     N
    N   1.0     0.722289     0.678602     0.462638  Biso 1.000000     N
    N   1.0     0.665488     0.586319     0.663786  Biso 1.000000     N
    N   1.0     0.755619     0.677756     0.957563  Biso 1.000000     N
    N   1.0     0.736466     0.601132     0.163434  Biso 1.000000     N
    O   1.0     0.427072     0.368889     0.857284  Biso 1.000000     O
    O   1.0     0.409801     0.382650     0.760716  Biso 1.000000     O
    O   1.0     0.257825     0.502662     0.870686  Biso 1.000000     O
    O   1.0     0.236156     0.515823     0.774536  Biso 1.000000     O
    O   1.0     0.287649     0.195735     0.852081  Biso 1.000000     O
    O   1.0     0.274940     0.209651     0.755337  Biso 1.000000     O
    O   1.0     0.120282     0.333313     0.864923  Biso 1.000000     O
    O   1.0     0.102471     0.342140     0.768066  Biso 1.000000     O
    O   1.0     0.168717     0.462166     0.152293  Biso 1.000000     O
    O   1.0     0.501440     0.368962     0.175220  Biso 1.000000     O
    O   1.0     0.075063     0.356009     0.444889  Biso 1.000000     O
    O   1.0     0.413885     0.293130     0.471917  Biso 1.000000     O
    O   1.0     0.572948     0.631099     0.357292  Biso 1.000000     O
    O   1.0     0.590222     0.617332     0.260722  Biso 1.000000     O
    O   1.0     0.742196     0.497338     0.370693  Biso 1.000000     O
    O   1.0     0.763863     0.484154     0.274542  Biso 1.000000     O
    O   1.0     0.712369     0.804257     0.352095  Biso 1.000000     O
    O   1.0     0.725083     0.790316     0.255350  Biso 1.000000     O
    O   1.0     0.879735     0.666675     0.364934  Biso 1.000000     O
    O   1.0     0.897552     0.657841     0.268077  Biso 1.000000     O
    O   1.0     0.831308     0.537822     0.652281  Biso 1.000000     O
    O   1.0     0.498587     0.631028     0.675222  Biso 1.000000     O
    O   1.0     0.924965     0.643967     0.944884  Biso 1.000000     O
    O   1.0     0.586144     0.706838     0.971937  Biso 1.000000     O
   Zn   1.0     0.253643     0.364594     0.750378  Biso 1.000000    Zn
   Zn   1.0     0.275785     0.347292     0.874639  Biso 1.000000    Zn
   Zn   1.0     0.746381     0.635381     0.250388  Biso 1.000000    Zn
   Zn   1.0     0.724233     0.652702     0.374649  Biso 1.000000    Zn
