#======================================================================

# CRYSTAL DATA

#----------------------------------------------------------------------

data_VESTA_phase_1


_pd_phase_name                         MOF
_cell_length_a                         13.52600
_cell_length_b                         25.07000
_cell_length_c                         22.67300
_cell_angle_alpha                      123.64800
_cell_angle_beta                       109.30600
_cell_angle_gamma                      88.26600
_symmetry_space_group_name_H-M         "P 1"
_symmetry_Int_Tables_number            1

loop_
_symmetry_equiv_pos_as_xyz
   "x, y, z"

loop_
   _atom_site_label
   _atom_site_occupancy
   _atom_site_fract_x
   _atom_site_fract_y
   _atom_site_fract_z
   _atom_site_adp_type
   _atom_site_B_iso_or_equiv
   _atom_site_type_symbol
    H   1.0     0.435475     0.271695     0.310710  Biso 1.000000     H
    H   1.0     0.444936     0.230526     0.783710  Biso 1.000000     H
    H   1.0     0.410787     0.823319     0.310719  Biso 1.000000     H
    H   1.0     0.420248     0.782122     0.783698  Biso 1.000000     H
    H   1.0     0.936466     0.271697     0.310710  Biso 1.000000     H
    H   1.0     0.945928     0.230533     0.783715  Biso 1.000000     H
    H   1.0     0.911778     0.823316     0.310717  Biso 1.000000     H
    H   1.0     0.921241     0.782184     0.783744  Biso 1.000000     H
    H   1.0     0.289801     0.478007     0.154116  Biso 1.000000     H
    H   1.0     0.299258     0.436825     0.627116  Biso 1.000000     H
    H   1.0     0.265107     0.000000     0.154135  Biso 1.000000     H
    H   1.0     0.274563     0.988429     0.627124  Biso 1.000000     H
    H   1.0     0.790787     0.478004     0.154122  Biso 1.000000     H
    H   1.0     0.800248     0.436829     0.627108  Biso 1.000000     H
    H   1.0     0.766095     0.000000     0.154119  Biso 1.000000     H
    H   1.0     0.775552     0.988430     0.627126  Biso 1.000000     H
    H   1.0     0.379787     0.279702     0.198817  Biso 1.000000     H
    H   1.0     0.389250     0.238528     0.671814  Biso 1.000000     H
    H   1.0     0.355100     0.831322     0.198824  Biso 1.000000     H
    H   1.0     0.364560     0.790128     0.671805  Biso 1.000000     H
    H   1.0     0.880779     0.279703     0.198818  Biso 1.000000     H
    H   1.0     0.890242     0.238536     0.671820  Biso 1.000000     H
    H   1.0     0.856092     0.831319     0.198822  Biso 1.000000     H
    H   1.0     0.865553     0.790191     0.671851  Biso 1.000000     H
    H   1.0     0.365654     0.044299     0.264473  Biso 1.000000     H
    H   1.0     0.375111     0.003131     0.737462  Biso 1.000000     H
    H   1.0     0.340963     0.595916     0.264451  Biso 1.000000     H
    H   1.0     0.350421     0.554734     0.737451  Biso 1.000000     H
    H   1.0     0.866642     0.044303     0.264458  Biso 1.000000     H
    H   1.0     0.876100     0.003132     0.737464  Biso 1.000000     H
    H   1.0     0.841949     0.595913     0.264457  Biso 1.000000     H
    H   1.0     0.851410     0.554738     0.737442  Biso 1.000000     H
    H   1.0     0.050325     0.236743     0.159998  Biso 1.000000     H
    H   1.0     0.059787     0.195575     0.632998  Biso 1.000000     H
    H   1.0     0.025638     0.788363     0.160003  Biso 1.000000     H
    H   1.0     0.035099     0.747218     0.633022  Biso 1.000000     H
    H   1.0     0.551317     0.236743     0.159997  Biso 1.000000     H
    H   1.0     0.560779     0.195569     0.632994  Biso 1.000000     H
    H   1.0     0.526629     0.788365     0.160004  Biso 1.000000     H
    H   1.0     0.536089     0.747154     0.632975  Biso 1.000000     H
    H   1.0     0.196001     0.030393     0.316567  Biso 1.000000     H
    H   1.0     0.205461    -0.010769     0.789545  Biso 1.000000     H
    H   1.0     0.171307     0.582001     0.316568  Biso 1.000000     H
    H   1.0     0.180768     0.540823     0.789559  Biso 1.000000     H
    H   1.0     0.696996     0.030399     0.316552  Biso 1.000000     H
    H   1.0     0.706451    -0.010774     0.789554  Biso 1.000000     H
    H   1.0     0.672300     0.581998     0.316576  Biso 1.000000     H
    H   1.0     0.681759     0.540819     0.789563  Biso 1.000000     H
    H   1.0     0.106012     0.228737     0.271891  Biso 1.000000     H
    H   1.0     0.115473     0.187573     0.744894  Biso 1.000000     H
    H   1.0     0.081323     0.780361     0.271899  Biso 1.000000     H
    H   1.0     0.090786     0.739212     0.744915  Biso 1.000000     H
    H   1.0     0.607003     0.228738     0.271890  Biso 1.000000     H
    H   1.0     0.616465     0.187567     0.744889  Biso 1.000000     H
    H   1.0     0.582314     0.780362     0.271899  Biso 1.000000     H
    H   1.0     0.591776     0.739148     0.744868  Biso 1.000000     H
    H   1.0     0.120147     0.464092     0.206233  Biso 1.000000     H
    H   1.0     0.129607     0.422914     0.679223  Biso 1.000000     H
    H   1.0     0.095455     0.000000     0.206228  Biso 1.000000     H
    H   1.0     0.104915     0.974529     0.679206  Biso 1.000000     H
    H   1.0     0.621139     0.464089     0.206241  Biso 1.000000     H
    H   1.0     0.630598     0.422910     0.679227  Biso 1.000000     H
    H   1.0     0.596451     0.000000     0.206214  Biso 1.000000     H
    H   1.0     0.605905     0.974524     0.679216  Biso 1.000000     H
    H   1.0     0.345313     0.189901    -0.040940  Biso 1.000000     H
    H   1.0     0.354776     0.148722     0.432053  Biso 1.000000     H
    H   1.0     0.320618     0.741502    -0.040957  Biso 1.000000     H
    H   1.0     0.330080     0.700330     0.432041  Biso 1.000000     H
    H   1.0     0.846303     0.189900    -0.040943  Biso 1.000000     H
    H   1.0     0.855767     0.148723     0.432057  Biso 1.000000     H
    H   1.0     0.821608     0.741500    -0.040960  Biso 1.000000     H
    H   1.0     0.831073     0.700332     0.432050  Biso 1.000000     H
    H   1.0     0.131035     0.359674     0.038645  Biso 1.000000     H
    H   1.0     0.140495     0.318493     0.511628  Biso 1.000000     H
    H   1.0     0.106340     0.911275     0.038627  Biso 1.000000     H
    H   1.0     0.115800     0.870102     0.511618  Biso 1.000000     H
    H   1.0     0.632023     0.359673     0.038639  Biso 1.000000     H
    H   1.0     0.641484     0.318494     0.511629  Biso 1.000000     H
    H   1.0     0.607326     0.911272     0.038616  Biso 1.000000     H
    H   1.0     0.616789     0.870103     0.511620  Biso 1.000000     H
    C   1.0     0.351499     0.264128     0.277188  Biso 1.000000     C
    C   1.0     0.360960     0.222959     0.750189  Biso 1.000000     C
    C   1.0     0.326810     0.815751     0.277197  Biso 1.000000     C
    C   1.0     0.336272     0.774565     0.750184  Biso 1.000000     C
    C   1.0     0.852490     0.264130     0.277189  Biso 1.000000     C
    C   1.0     0.861952     0.222963     0.750192  Biso 1.000000     C
    C   1.0     0.827802     0.815749     0.277195  Biso 1.000000     C
    C   1.0     0.837264     0.774600     0.750210  Biso 1.000000     C
    C   1.0     0.373356     0.501124     0.190087  Biso 1.000000     C
    C   1.0     0.382815     0.459943     0.663083  Biso 1.000000     C
    C   1.0     0.348663     0.000000     0.190097  Biso 1.000000     C
    C   1.0     0.358119     0.000000     0.663088  Biso 1.000000     C
    C   1.0     0.874343     0.501122     0.190089  Biso 1.000000     C
    C   1.0     0.883804     0.459947     0.663076  Biso 1.000000     C
    C   1.0     0.849650     0.000000     0.190087  Biso 1.000000     C
    C   1.0     0.859108     0.000000     0.663087  Biso 1.000000     C
    C   1.0     0.320678     0.268561     0.215363  Biso 1.000000     C
    C   1.0     0.330140     0.227389     0.688362  Biso 1.000000     C
    C   1.0     0.295990     0.820182     0.215371  Biso 1.000000     C
    C   1.0     0.305451     0.778998     0.688360  Biso 1.000000     C
    C   1.0     0.821669     0.268562     0.215364  Biso 1.000000     C
    C   1.0     0.831132     0.227394     0.688365  Biso 1.000000     C
    C   1.0     0.796982     0.820181     0.215369  Biso 1.000000     C
    C   1.0     0.806443     0.779033     0.688385  Biso 1.000000     C
    C   1.0     0.426446     0.015006     0.251540  Biso 1.000000     C
    C   1.0     0.435902    -0.026163     0.724532  Biso 1.000000     C
    C   1.0     0.401754     0.566619     0.251529  Biso 1.000000     C
    C   1.0     0.411212     0.525437     0.724526  Biso 1.000000     C
    C   1.0     0.927433     0.015008     0.251531  Biso 1.000000     C
    C   1.0     0.936891    -0.026162     0.724531  Biso 1.000000     C
    C   1.0     0.902740     0.566617     0.251532  Biso 1.000000     C
    C   1.0     0.912201     0.525441     0.724519  Biso 1.000000     C
    C   1.0     0.134301     0.244310     0.193519  Biso 1.000000     C
    C   1.0     0.143763     0.203141     0.666520  Biso 1.000000     C
    C   1.0     0.109613     0.795932     0.193526  Biso 1.000000     C
    C   1.0     0.119075     0.754775     0.666536  Biso 1.000000     C
    C   1.0     0.635293     0.244311     0.193519  Biso 1.000000     C
    C   1.0     0.644755     0.203139     0.666518  Biso 1.000000     C
    C   1.0     0.610605     0.795932     0.193526  Biso 1.000000     C
    C   1.0     0.620066     0.754738     0.666509  Biso 1.000000     C
    C   1.0     0.112446     0.007273     0.280598  Biso 1.000000     C
    C   1.0     0.121906    -0.033891     0.753582  Biso 1.000000     C
    C   1.0     0.087752     0.558881     0.280599  Biso 1.000000     C
    C   1.0     0.097213     0.517704     0.753588  Biso 1.000000     C
    C   1.0     0.613441     0.007277     0.280590  Biso 1.000000     C
    C   1.0     0.622896    -0.033895     0.753589  Biso 1.000000     C
    C   1.0     0.588745     0.558880     0.280604  Biso 1.000000     C
    C   1.0     0.598204     0.517700     0.753594  Biso 1.000000     C
    C   1.0     0.165122     0.239877     0.255344  Biso 1.000000     C
    C   1.0     0.174584     0.198711     0.728347  Biso 1.000000     C
    C   1.0     0.140434     0.791500     0.255352  Biso 1.000000     C
    C   1.0     0.149896     0.750341     0.728361  Biso 1.000000     C
    C   1.0     0.666114     0.239878     0.255344  Biso 1.000000     C
    C   1.0     0.675576     0.198708     0.728344  Biso 1.000000     C
    C   1.0     0.641425     0.791500     0.255352  Biso 1.000000     C
    C   1.0     0.650887     0.750305     0.728334  Biso 1.000000     C
    C   1.0     0.059355     0.493387     0.219156  Biso 1.000000     C
    C   1.0     0.068816     0.452210     0.692146  Biso 1.000000     C
    C   1.0     0.034663     0.000000     0.219154  Biso 1.000000     C
    C   1.0     0.044123     0.000000     0.692138  Biso 1.000000     C
    C   1.0     0.560348     0.493385     0.219162  Biso 1.000000     C
    C   1.0     0.569807     0.452206     0.692151  Biso 1.000000     C
    C   1.0     0.535658     0.000000     0.219146  Biso 1.000000     C
    C   1.0     0.545113     0.000000     0.692145  Biso 1.000000     C
    C   1.0     0.273907     0.249768     0.297526  Biso 1.000000     C
    C   1.0     0.283369     0.208601     0.770528  Biso 1.000000     C
    C   1.0     0.249219     0.801390     0.297534  Biso 1.000000     C
    C   1.0     0.258681     0.760217     0.770531  Biso 1.000000     C
    C   1.0     0.774898     0.249769     0.297526  Biso 1.000000     C
    C   1.0     0.784361     0.208601     0.770528  Biso 1.000000     C
    C   1.0     0.750210     0.801389     0.297533  Biso 1.000000     C
    C   1.0     0.759672     0.760216     0.770531  Biso 1.000000     C
    C   1.0     0.307548     0.244981     0.364019  Biso 1.000000     C
    C   1.0     0.317011     0.203814     0.837021  Biso 1.000000     C
    C   1.0     0.282858     0.796597     0.364023  Biso 1.000000     C
    C   1.0     0.292322     0.755421     0.837018  Biso 1.000000     C
    C   1.0     0.808539     0.244982     0.364020  Biso 1.000000     C
    C   1.0     0.818002     0.203814     0.837021  Biso 1.000000     C
    C   1.0     0.783849     0.796597     0.364023  Biso 1.000000     C
    C   1.0     0.793313     0.755420     0.837018  Biso 1.000000     C
    C   1.0     0.452340     0.463986     0.173346  Biso 1.000000     C
    C   1.0     0.461798     0.422806     0.646338  Biso 1.000000     C
    C   1.0     0.427649     0.000000     0.173341  Biso 1.000000     C
    C   1.0     0.437104     0.974415     0.646337  Biso 1.000000     C
    C   1.0     0.953327     0.463986     0.173344  Biso 1.000000     C
    C   1.0     0.962788     0.422809     0.646333  Biso 1.000000     C
    C   1.0     0.928635     0.000000     0.173340  Biso 1.000000     C
    C   1.0     0.938094     0.974418     0.646333  Biso 1.000000     C
    C   1.0     0.421708     0.393462     0.107318  Biso 1.000000     C
    C   1.0     0.431168     0.352282     0.580310  Biso 1.000000     C
    C   1.0     0.397018     0.945062     0.107312  Biso 1.000000     C
    C   1.0     0.406476     0.903891     0.580309  Biso 1.000000     C
    C   1.0     0.922696     0.393461     0.107318  Biso 1.000000     C
    C   1.0     0.932158     0.352284     0.580308  Biso 1.000000     C
    C   1.0     0.898005     0.945061     0.107312  Biso 1.000000     C
    C   1.0     0.907465     0.903893     0.580306  Biso 1.000000     C
    C   1.0     0.211893     0.258664     0.173176  Biso 1.000000     C
    C   1.0     0.221355     0.217493     0.646175  Biso 1.000000     C
    C   1.0     0.187205     0.810282     0.173181  Biso 1.000000     C
    C   1.0     0.196666     0.769113     0.646182  Biso 1.000000     C
    C   1.0     0.712884     0.258664     0.173176  Biso 1.000000     C
    C   1.0     0.722347     0.217493     0.646175  Biso 1.000000     C
    C   1.0     0.688197     0.810282     0.173181  Biso 1.000000     C
    C   1.0     0.697657     0.769112     0.646181  Biso 1.000000     C
    C   1.0     0.178252     0.263433     0.106671  Biso 1.000000     C
    C   1.0     0.187716     0.222257     0.579666  Biso 1.000000     C
    C   1.0     0.153564     0.815043     0.106670  Biso 1.000000     C
    C   1.0     0.163026     0.773873     0.579670  Biso 1.000000     C
    C   1.0     0.679243     0.263433     0.106671  Biso 1.000000     C
    C   1.0     0.688707     0.222259     0.579667  Biso 1.000000     C
    C   1.0     0.654555     0.815043     0.106670  Biso 1.000000     C
    C   1.0     0.664016     0.773873     0.579670  Biso 1.000000     C
    C   1.0     0.033462     0.044409     0.297342  Biso 1.000000     C
    C   1.0     0.042921     0.003242     0.770335  Biso 1.000000     C
    C   1.0     0.008769     0.596018     0.297341  Biso 1.000000     C
    C   1.0     0.018230     0.554842     0.770330  Biso 1.000000     C
    C   1.0     0.534456     0.044410     0.297342  Biso 1.000000     C
    C   1.0     0.543912     0.003239     0.770338  Biso 1.000000     C
    C   1.0     0.509762     0.596018     0.297343  Biso 1.000000     C
    C   1.0     0.519221     0.554838     0.770336  Biso 1.000000     C
    C   1.0     0.064096     0.114932     0.363367  Biso 1.000000     C
    C   1.0     0.073557     0.073764     0.836361  Biso 1.000000     C
    C   1.0     0.039404     0.666541     0.363367  Biso 1.000000     C
    C   1.0     0.048867     0.625365     0.836355  Biso 1.000000     C
    C   1.0     0.565089     0.114933     0.363367  Biso 1.000000     C
    C   1.0     0.574548     0.073762     0.836362  Biso 1.000000     C
    C   1.0     0.540397     0.666542     0.363366  Biso 1.000000     C
    C   1.0     0.549858     0.625362     0.836360  Biso 1.000000     C
    O   1.0     0.407734     0.257057     0.401344  Biso 1.000000     O
    O   1.0     0.417196     0.215888     0.874344  Biso 1.000000     O
    O   1.0     0.383044     0.808671     0.401347  Biso 1.000000     O
    O   1.0     0.392508     0.767493     0.874339  Biso 1.000000     O
    O   1.0     0.908725     0.257057     0.401343  Biso 1.000000     O
    O   1.0     0.918188     0.215890     0.874346  Biso 1.000000     O
    O   1.0     0.884034     0.808669     0.401345  Biso 1.000000     O
    O   1.0     0.893499     0.767498     0.874343  Biso 1.000000     O
    O   1.0     0.322287     0.368511     0.071185  Biso 1.000000     O
    O   1.0     0.331747     0.327332     0.544175  Biso 1.000000     O
    O   1.0     0.297597     0.920112     0.071177  Biso 1.000000     O
    O   1.0     0.307055     0.878940     0.544173  Biso 1.000000     O
    O   1.0     0.823275     0.368511     0.071183  Biso 1.000000     O
    O   1.0     0.832737     0.327334     0.544174  Biso 1.000000     O
    O   1.0     0.798584     0.920111     0.071172  Biso 1.000000     O
    O   1.0     0.808045     0.878942     0.544172  Biso 1.000000     O
    O   1.0     0.252654     0.278743     0.092655  Biso 1.000000     O
    O   1.0     0.262117     0.237567     0.565650  Biso 1.000000     O
    O   1.0     0.227965     0.830348     0.092649  Biso 1.000000     O
    O   1.0     0.237426     0.789177     0.565648  Biso 1.000000     O
    O   1.0     0.753645     0.278743     0.092654  Biso 1.000000     O
    O   1.0     0.763108     0.237569     0.565651  Biso 1.000000     O
    O   1.0     0.728956     0.830349     0.092650  Biso 1.000000     O
    O   1.0     0.738416     0.789184     0.565653  Biso 1.000000     O
    O   1.0    -0.012125     0.144395     0.378367  Biso 1.000000     O
    O   1.0    -0.002663     0.103227     0.851363  Biso 1.000000     O
    O   1.0    -0.036816     0.696005     0.378366  Biso 1.000000     O
    O   1.0    -0.027353     0.654829     0.851356  Biso 1.000000     O
    O   1.0     0.488867     0.144395     0.378367  Biso 1.000000     O
    O   1.0     0.498327     0.103225     0.851364  Biso 1.000000     O
    O   1.0     0.464176     0.696006     0.378364  Biso 1.000000     O
    O   1.0     0.473638     0.654826     0.851358  Biso 1.000000     O
    O   1.0     0.078067     0.251333     0.069330  Biso 1.000000     O
    O   1.0     0.087530     0.210159     0.542327  Biso 1.000000     O
    O   1.0     0.053379     0.802938     0.069325  Biso 1.000000     O
    O   1.0     0.062840     0.761772     0.542329  Biso 1.000000     O
    O   1.0     0.579058     0.251334     0.069330  Biso 1.000000     O
    O   1.0     0.588521     0.210158     0.542326  Biso 1.000000     O
    O   1.0     0.554370     0.802941     0.069327  Biso 1.000000     O
    O   1.0     0.563830     0.761768     0.542325  Biso 1.000000     O
    O   1.0     0.163518     0.139881     0.399498  Biso 1.000000     O
    O   1.0     0.172980     0.098711     0.872494  Biso 1.000000     O
    O   1.0     0.138826     0.691489     0.399494  Biso 1.000000     O
    O   1.0     0.148289     0.650312     0.872486  Biso 1.000000     O
    O   1.0     0.664510     0.139882     0.399498  Biso 1.000000     O
    O   1.0     0.673970     0.098710     0.872494  Biso 1.000000     O
    O   1.0     0.639819     0.691490     0.399497  Biso 1.000000     O
    O   1.0     0.649280     0.650310     0.872488  Biso 1.000000     O
    O   1.0     0.233145     0.229663     0.378029  Biso 1.000000     O
    O   1.0     0.242607     0.188496     0.851031  Biso 1.000000     O
    O   1.0     0.208454     0.781278     0.378030  Biso 1.000000     O
    O   1.0     0.217918     0.740103     0.851027  Biso 1.000000     O
    O   1.0     0.734136     0.229664     0.378029  Biso 1.000000     O
    O   1.0     0.743598     0.188494     0.851029  Biso 1.000000     O
    O   1.0     0.709444     0.781277     0.378030  Biso 1.000000     O
    O   1.0     0.718910     0.740094     0.851021  Biso 1.000000     O
    O   1.0     0.497929     0.364002     0.092312  Biso 1.000000     O
    O   1.0     0.507389     0.322823     0.565304  Biso 1.000000     O
    O   1.0     0.473240     0.915604     0.092303  Biso 1.000000     O
    O   1.0     0.482698     0.874433     0.565303  Biso 1.000000     O
    O   1.0     0.998918     0.364001     0.092312  Biso 1.000000     O
    O   1.0     0.000000     0.322825     0.565303  Biso 1.000000     O
    O   1.0     0.974228     0.915603     0.092306  Biso 1.000000     O
    O   1.0     0.983689     0.874435     0.565301  Biso 1.000000     O
    O   1.0     0.365758     0.236608    -0.000670  Biso 1.000000     O
    O   1.0     0.375222     0.195429     0.472323  Biso 1.000000     O
    O   1.0     0.341066     0.788207    -0.000680  Biso 1.000000     O
    O   1.0     0.350529     0.747035     0.472318  Biso 1.000000     O
    O   1.0     0.866748     0.236607    -0.000671  Biso 1.000000     O
    O   1.0     0.876213     0.195431     0.472325  Biso 1.000000     O
    O   1.0     0.842056     0.788206    -0.000681  Biso 1.000000     O
    O   1.0     0.851520     0.747039     0.472323  Biso 1.000000     O
    O   1.0     0.110584     0.312969    -0.001636  Biso 1.000000     O
    O   1.0     0.120046     0.271788     0.471352  Biso 1.000000     O
    O   1.0     0.085892     0.864569    -0.001647  Biso 1.000000     O
    O   1.0     0.095353     0.823395     0.471348  Biso 1.000000     O
    O   1.0     0.611573     0.312967    -0.001640  Biso 1.000000     O
    O   1.0     0.621036     0.271788     0.471352  Biso 1.000000     O
    O   1.0     0.586880     0.864565    -0.001653  Biso 1.000000     O
    O   1.0     0.596343     0.823396     0.471349  Biso 1.000000     O
   Ga   1.0    -0.012323     0.274785    -0.001158  Biso 1.000000    Ga
   Ga   1.0    -0.002860     0.233607     0.471835  Biso 1.000000    Ga
   Ga   1.0    -0.037015     0.826387    -0.001164  Biso 1.000000    Ga
   Ga   1.0    -0.027551     0.785216     0.471835  Biso 1.000000    Ga
   Ga   1.0     0.488667     0.274785    -0.001158  Biso 1.000000    Ga
   Ga   1.0     0.498131     0.233606     0.471835  Biso 1.000000    Ga
   Ga   1.0     0.463975     0.826387    -0.001165  Biso 1.000000    Ga
   Ga   1.0     0.473439     0.785216     0.471834  Biso 1.000000    Ga
   Ga   1.0     0.238170     0.274785    -0.001158  Biso 1.000000    Ga
   Ga   1.0     0.247635     0.233606     0.471834  Biso 1.000000    Ga
   Ga   1.0     0.213479     0.826386    -0.001166  Biso 1.000000    Ga
   Ga   1.0     0.222942     0.785214     0.471832  Biso 1.000000    Ga
   Ga   1.0     0.739160     0.274784    -0.001160  Biso 1.000000    Ga
   Ga   1.0     0.748625     0.233607     0.471835  Biso 1.000000    Ga
   Ga   1.0     0.714469     0.826384    -0.001167  Biso 1.000000    Ga
   Ga   1.0     0.723932     0.785215     0.471833  Biso 1.000000    Ga
