#======================================================================

# CRYSTAL DATA

#----------------------------------------------------------------------

data_VESTA_phase_1


_pd_phase_name                         MOF
_cell_length_a                         12.19000
_cell_length_b                         14.11700
_cell_length_c                         12.32800
_cell_angle_alpha                      90.11600
_cell_angle_beta                       89.96100
_cell_angle_gamma                      111.43900
_symmetry_space_group_name_H-M         "P 1"
_symmetry_Int_Tables_number            1

loop_
_symmetry_equiv_pos_as_xyz
   "x, y, z"

loop_
   _atom_site_label
   _atom_site_occupancy
   _atom_site_fract_x
   _atom_site_fract_y
   _atom_site_fract_z
   _atom_site_adp_type
   _atom_site_B_iso_or_equiv
   _atom_site_type_symbol
    H   1.0     0.647729     0.734273     0.229127  Biso 1.000000     H
    H   1.0     0.231147     0.622213     0.131135  Biso 1.000000     H
    H   1.0     0.083389     0.793278     0.341611  Biso 1.000000     H
    H   1.0     0.058879     0.495611     0.149147  Biso 1.000000     H
    H   1.0     0.933823     0.734872     0.249887  Biso 1.000000     H
    H   1.0     0.352820     0.768130     0.732212  Biso 1.000000     H
    H   1.0     0.768998     0.879749     0.633095  Biso 1.000000     H
    H   1.0     0.916481     0.706778     0.840289  Biso 1.000000     H
    H   1.0     0.941100     0.005038     0.648757  Biso 1.000000     H
    H   1.0     0.067096     0.767631     0.753046  Biso 1.000000     H
    H   1.0     0.352273     0.265736     0.770901  Biso 1.000000     H
    H   1.0     0.768841     0.377775     0.868897  Biso 1.000000     H
    H   1.0     0.916594     0.206671     0.658466  Biso 1.000000     H
    H   1.0     0.941099     0.504354     0.850963  Biso 1.000000     H
    H   1.0     0.066173     0.265133     0.750119  Biso 1.000000     H
    H   1.0     0.647173     0.231867     0.267846  Biso 1.000000     H
    H   1.0     0.230979     0.120216     0.366945  Biso 1.000000     H
    H   1.0     0.083508     0.293183     0.159736  Biso 1.000000     H
    H   1.0     0.058879     0.994940     0.351292  Biso 1.000000     H
    H   1.0     0.932886     0.232340     0.246967  Biso 1.000000     H
    C   1.0     0.460806     0.730518     0.191202  Biso 1.000000     C
    C   1.0     0.295486     0.919644     0.417788  Biso 1.000000     C
    C   1.0     0.836613     0.358901     0.092968  Biso 1.000000     C
    C   1.0     0.701031     0.619691     0.207391  Biso 1.000000     C
    C   1.0     0.348486     0.739614     0.231507  Biso 1.000000     C
    C   1.0     0.237556     0.679480     0.192387  Biso 1.000000     C
    C   1.0     0.137237     0.693549     0.234296  Biso 1.000000     C
    C   1.0     0.155494     0.774467     0.307286  Biso 1.000000     C
    C   1.0     0.269715     0.830956     0.341547  Biso 1.000000     C
    C   1.0     0.873799     0.465808     0.140617  Biso 1.000000     C
    C   1.0     0.990645     0.527142     0.163395  Biso 1.000000     C
    C   1.0     0.000000     0.626052     0.204075  Biso 1.000000     C
    C   1.0     0.921744     0.659537     0.218831  Biso 1.000000     C
    C   1.0     0.808368     0.593229     0.195046  Biso 1.000000     C
    C   1.0     0.539260     0.770547     0.692051  Biso 1.000000     C
    C   1.0     0.704625     0.579270     0.914623  Biso 1.000000     C
    C   1.0     0.163128     0.141627     0.593048  Biso 1.000000     C
    C   1.0     0.299788     0.882986     0.711107  Biso 1.000000     C
    C   1.0     0.651601     0.761208     0.731786  Biso 1.000000     C
    C   1.0     0.762598     0.821902     0.693410  Biso 1.000000     C
    C   1.0     0.862927     0.807590     0.734832  Biso 1.000000     C
    C   1.0     0.844499     0.725950     0.806499  Biso 1.000000     C
    C   1.0     0.730230     0.668833     0.839972  Biso 1.000000     C
    C   1.0     0.126320     0.035426     0.641843  Biso 1.000000     C
    C   1.0     0.009467    -0.026014     0.664266  Biso 1.000000     C
    C   1.0    -0.015840     0.875449     0.705486  Biso 1.000000     C
    C   1.0     0.078853     0.842630     0.721515  Biso 1.000000     C
    C   1.0     0.192247     0.909101     0.698207  Biso 1.000000     C
    C   1.0     0.539186     0.269455     0.808873  Biso 1.000000     C
    C   1.0     0.704516     0.080366     0.582231  Biso 1.000000     C
    C   1.0     0.163386     0.641097     0.907083  Biso 1.000000     C
    C   1.0     0.298940     0.380287     0.792676  Biso 1.000000     C
    C   1.0     0.651501     0.260347     0.768566  Biso 1.000000     C
    C   1.0     0.762436     0.320483     0.807678  Biso 1.000000     C
    C   1.0     0.862754     0.306417     0.765762  Biso 1.000000     C
    C   1.0     0.844498     0.225543     0.692713  Biso 1.000000     C
    C   1.0     0.730270     0.169029     0.658500  Biso 1.000000     C
    C   1.0     0.126175     0.534159     0.859502  Biso 1.000000     C
    C   1.0     0.009335     0.472837     0.836674  Biso 1.000000     C
    C   1.0    -0.016129     0.373940     0.795965  Biso 1.000000     C
    C   1.0     0.078244     0.340459     0.781195  Biso 1.000000     C
    C   1.0     0.191613     0.406753     0.805001  Biso 1.000000     C
    C   1.0     0.460719     0.229426     0.307988  Biso 1.000000     C
    C   1.0     0.295363     0.420724     0.085442  Biso 1.000000     C
    C   1.0     0.836860     0.858348     0.406989  Biso 1.000000     C
    C   1.0     0.700195     0.117004     0.288949  Biso 1.000000     C
    C   1.0     0.348381     0.238761     0.268253  Biso 1.000000     C
    C   1.0     0.237385     0.178047     0.306610  Biso 1.000000     C
    C   1.0     0.137061     0.192385     0.265217  Biso 1.000000     C
    C   1.0     0.155491     0.274053     0.193591  Biso 1.000000     C
    C   1.0     0.269756     0.331167     0.160103  Biso 1.000000     C
    C   1.0     0.873665     0.964550     0.358192  Biso 1.000000     C
    C   1.0     0.990513     0.000000     0.335775  Biso 1.000000     C
    C   1.0     0.000000     0.124530     0.294549  Biso 1.000000     C
    C   1.0     0.921132     0.157358     0.278548  Biso 1.000000     C
    C   1.0     0.807731     0.090879     0.301860  Biso 1.000000     C
    N   1.0     0.364525     0.811041     0.309023  Biso 1.000000     N
    N   1.0     0.784713     0.498412     0.157675  Biso 1.000000     N
    N   1.0     0.635434     0.688938     0.808072  Biso 1.000000     N
    N   1.0     0.215659     0.003479     0.660088  Biso 1.000000     N
    N   1.0     0.635456     0.188924     0.691046  Biso 1.000000     N
    N   1.0     0.215259     0.501549     0.842449  Biso 1.000000     N
    N   1.0     0.364550     0.311046     0.191981  Biso 1.000000     N
    N   1.0     0.784320     0.996503     0.339963  Biso 1.000000     N
    O   1.0     0.551088     0.771234     0.253203  Biso 1.000000     O
    O   1.0     0.463462     0.687275     0.102561  Biso 1.000000     O
    O   1.0     0.393605     0.943145     0.471271  Biso 1.000000     O
    O   1.0     0.227419     0.967032     0.425565  Biso 1.000000     O
    O   1.0     0.726415     0.321333     0.064616  Biso 1.000000     O
    O   1.0     0.910441     0.317836     0.084317  Biso 1.000000     O
    O   1.0     0.601128     0.551236     0.204243  Biso 1.000000     O
    O   1.0     0.723364     0.716810     0.218113  Biso 1.000000     O
    O   1.0     0.448985     0.729324     0.753852  Biso 1.000000     O
    O   1.0     0.536713     0.814514     0.604055  Biso 1.000000     O
    O   1.0     0.606075     0.554677     0.967696  Biso 1.000000     O
    O   1.0     0.773409     0.532606     0.921521  Biso 1.000000     O
    O   1.0     0.273240     0.179034     0.564326  Biso 1.000000     O
    O   1.0     0.088890     0.182135     0.583574  Biso 1.000000     O
    O   1.0     0.399617    -0.048506     0.707769  Biso 1.000000     O
    O   1.0     0.277454     0.785944     0.722294  Biso 1.000000     O
    O   1.0     0.448932     0.228797     0.746826  Biso 1.000000     O
    O   1.0     0.536515     0.312698     0.897511  Biso 1.000000     O
    O   1.0     0.606371     0.056827     0.528788  Biso 1.000000     O
    O   1.0     0.772566     0.032959     0.574495  Biso 1.000000     O
    O   1.0     0.273597     0.678681     0.935406  Biso 1.000000     O
    O   1.0     0.089560     0.682159     0.915730  Biso 1.000000     O
    O   1.0     0.398842     0.448750     0.795797  Biso 1.000000     O
    O   1.0     0.276620     0.283174     0.781917  Biso 1.000000     O
    O   1.0     0.551010     0.270671     0.246209  Biso 1.000000     O
    O   1.0     0.463257     0.185475     0.395998  Biso 1.000000     O
    O   1.0     0.393899     0.445281     0.032357  Biso 1.000000     O
    O   1.0     0.226568     0.467378     0.078504  Biso 1.000000     O
    O   1.0     0.726741     0.820923     0.435696  Biso 1.000000     O
    O   1.0     0.911094     0.817833     0.416434  Biso 1.000000     O
    O   1.0     0.600365     0.000000     0.292295  Biso 1.000000     O
    O   1.0     0.722536     0.214047     0.277750  Biso 1.000000     O
   La   1.0     0.575305     0.893405     0.420221  Biso 1.000000    La
   La   1.0     0.425269     0.606407     0.919901  Biso 1.000000    La
   La   1.0     0.424680     0.106568     0.579837  Biso 1.000000    La
   La   1.0     0.574720     0.393580     0.080164  Biso 1.000000    La
