#======================================================================

# CRYSTAL DATA

#----------------------------------------------------------------------

data_VESTA_phase_1


_pd_phase_name                         MOF
_cell_length_a                         23.72200
_cell_length_b                         13.82600
_cell_length_c                         21.39200
_cell_angle_alpha                      89.95500
_cell_angle_beta                       89.99700
_cell_angle_gamma                      90.00300
_symmetry_space_group_name_H-M         "P 1"
_symmetry_Int_Tables_number            1

loop_
_symmetry_equiv_pos_as_xyz
   "x, y, z"

loop_
   _atom_site_label
   _atom_site_occupancy
   _atom_site_fract_x
   _atom_site_fract_y
   _atom_site_fract_z
   _atom_site_adp_type
   _atom_site_B_iso_or_equiv
   _atom_site_type_symbol
    H   1.0     0.103736     0.534364     0.900309  Biso 1.000000     H
    H   1.0     0.603753     0.535475     0.900025  Biso 1.000000     H
    H   1.0     0.207994     0.540561     0.897831  Biso 1.000000     H
    H   1.0     0.707986     0.541602     0.897436  Biso 1.000000     H
    H   1.0     0.207920     0.256312     0.983468  Biso 1.000000     H
    H   1.0     0.707927     0.257093     0.982711  Biso 1.000000     H
    H   1.0     0.103544     0.264026     0.982855  Biso 1.000000     H
    H   1.0     0.603552     0.264831     0.982171  Biso 1.000000     H
    H   1.0     0.103710     0.469582     0.105044  Biso 1.000000     H
    H   1.0     0.603752     0.469451     0.105357  Biso 1.000000     H
    H   1.0     0.207966     0.464364     0.108897  Biso 1.000000     H
    H   1.0     0.707993     0.464161     0.109058  Biso 1.000000     H
    H   1.0     0.208184     0.738211     0.010105  Biso 1.000000     H
    H   1.0     0.708171     0.737726     0.009933  Biso 1.000000     H
    H   1.0     0.103757     0.731633     0.011942  Biso 1.000000     H
    H   1.0     0.603742     0.730998     0.011660  Biso 1.000000     H
    H   1.0     0.396532     0.965334     0.400017  Biso 1.000000     H
    H   1.0     0.896584     0.966277     0.399483  Biso 1.000000     H
    H   1.0     0.292288     0.958856     0.397534  Biso 1.000000     H
    H   1.0     0.792314     0.959831     0.396832  Biso 1.000000     H
    H   1.0     0.292108     0.243117     0.482875  Biso 1.000000     H
    H   1.0     0.792065     0.242754     0.484016  Biso 1.000000     H
    H   1.0     0.396431     0.235773     0.482219  Biso 1.000000     H
    H   1.0     0.896411     0.235431     0.483371  Biso 1.000000     H
    H   1.0     0.396249     0.031421     0.603181  Biso 1.000000     H
    H   1.0     0.896264     0.031568     0.603480  Biso 1.000000     H
    H   1.0     0.291975     0.037281     0.606712  Biso 1.000000     H
    H   1.0     0.792016     0.037445     0.607013  Biso 1.000000     H
    H   1.0     0.291564     0.760067     0.512174  Biso 1.000000     H
    H   1.0     0.791561     0.760436     0.512230  Biso 1.000000     H
    H   1.0     0.395940     0.766981     0.513268  Biso 1.000000     H
    H   1.0     0.895919     0.767114     0.513529  Biso 1.000000     H
    H   1.0     0.396294     0.464210     0.097965  Biso 1.000000     H
    H   1.0     0.896353     0.464485     0.098619  Biso 1.000000     H
    H   1.0     0.291986     0.457567     0.100072  Biso 1.000000     H
    H   1.0     0.792069     0.457801     0.100835  Biso 1.000000     H
    H   1.0     0.291923     0.745241     0.019393  Biso 1.000000     H
    H   1.0     0.791887     0.744300     0.018414  Biso 1.000000     H
    H   1.0     0.396309     0.737661     0.019843  Biso 1.000000     H
    H   1.0     0.896282     0.736705     0.018704  Biso 1.000000     H
    H   1.0     0.396307     0.530598     0.895972  Biso 1.000000     H
    H   1.0     0.896364     0.532037     0.896282  Biso 1.000000     H
    H   1.0     0.292051     0.536346     0.892572  Biso 1.000000     H
    H   1.0     0.792131     0.537836     0.892768  Biso 1.000000     H
    H   1.0     0.291765     0.260194     0.988672  Biso 1.000000     H
    H   1.0     0.791726     0.260512     0.987440  Biso 1.000000     H
    H   1.0     0.396149     0.266823     0.986997  Biso 1.000000     H
    H   1.0     0.896114     0.267202     0.986021  Biso 1.000000     H
    H   1.0     0.103388     0.033648     0.600544  Biso 1.000000     H
    H   1.0     0.603432     0.034540     0.600036  Biso 1.000000     H
    H   1.0     0.207658     0.040078     0.603210  Biso 1.000000     H
    H   1.0     0.707675     0.041019     0.602535  Biso 1.000000     H
    H   1.0     0.207904     0.757210     0.515953  Biso 1.000000     H
    H   1.0     0.707867     0.756853     0.517062  Biso 1.000000     H
    H   1.0     0.103557     0.764538     0.516598  Biso 1.000000     H
    H   1.0     0.603545     0.764184     0.517720  Biso 1.000000     H
    H   1.0     0.103702     0.968402     0.396488  Biso 1.000000     H
    H   1.0     0.603720     0.968549     0.396782  Biso 1.000000     H
    H   1.0     0.207950     0.962523     0.392947  Biso 1.000000     H
    H   1.0     0.707995     0.962696     0.393243  Biso 1.000000     H
    H   1.0     0.208415     0.239467     0.487808  Biso 1.000000     H
    H   1.0     0.708407     0.239825     0.487885  Biso 1.000000     H
    H   1.0     0.104056     0.232806     0.486499  Biso 1.000000     H
    H   1.0     0.604030     0.232918     0.486781  Biso 1.000000     H
    H   1.0     0.000194     0.153795     0.102635  Biso 1.000000     H
    H   1.0     0.501975     0.153851     0.102678  Biso 1.000000     H
    H   1.0     0.000000     0.088572     0.212521  Biso 1.000000     H
    H   1.0     0.501894     0.088681     0.212577  Biso 1.000000     H
    H   1.0    -0.000137     0.377962     0.284195  Biso 1.000000     H
    H   1.0     0.498304     0.378047     0.284180  Biso 1.000000     H
    H   1.0    -0.000167     0.444092     0.175553  Biso 1.000000     H
    H   1.0     0.498485     0.444128     0.175528  Biso 1.000000     H
    H   1.0    -0.000209     0.846172     0.897341  Biso 1.000000     H
    H   1.0     0.499996     0.846129     0.897306  Biso 1.000000     H
    H   1.0    -0.000151     0.911381     0.787450  Biso 1.000000     H
    H   1.0     0.499795     0.911283     0.787403  Biso 1.000000     H
    H   1.0     0.000000     0.621982     0.715792  Biso 1.000000     H
    H   1.0     0.500312     0.621853     0.715798  Biso 1.000000     H
    H   1.0     0.000000     0.555866     0.824436  Biso 1.000000     H
    H   1.0     0.500068     0.555792     0.824448  Biso 1.000000     H
    H   1.0    -0.000138     0.345451     0.602998  Biso 1.000000     H
    H   1.0     0.500022     0.345414     0.602999  Biso 1.000000     H
    H   1.0    -0.000103     0.410945     0.712763  Biso 1.000000     H
    H   1.0     0.499802     0.410881     0.712772  Biso 1.000000     H
    H   1.0     0.000022     0.121771     0.785037  Biso 1.000000     H
    H   1.0     0.500267     0.121691     0.785020  Biso 1.000000     H
    H   1.0     0.000000     0.055330     0.676484  Biso 1.000000     H
    H   1.0     0.500022     0.055277     0.676462  Biso 1.000000     H
    H   1.0     0.000127     0.654480     0.396981  Biso 1.000000     H
    H   1.0     0.500196     0.654495     0.396969  Biso 1.000000     H
    H   1.0     0.000000     0.588993     0.287216  Biso 1.000000     H
    H   1.0     0.500432     0.589042     0.287195  Biso 1.000000     H
    H   1.0     0.999965     0.878172     0.214951  Biso 1.000000     H
    H   1.0     0.499489     0.878238     0.214964  Biso 1.000000     H
    H   1.0    -0.000041     0.944607     0.323505  Biso 1.000000     H
    H   1.0     0.499763     0.944643     0.323524  Biso 1.000000     H
    C   1.0     0.128903     0.474544     0.918359  Biso 1.000000     C
    C   1.0     0.628901     0.475567     0.917989  Biso 1.000000     C
    C   1.0     0.187446     0.476891     0.917164  Biso 1.000000     C
    C   1.0     0.687445     0.477886     0.916718  Biso 1.000000     C
    C   1.0     0.218643     0.398528     0.940764  Biso 1.000000     C
    C   1.0     0.718650     0.399449     0.940206  Biso 1.000000     C
    C   1.0     0.187409     0.320435     0.964697  Biso 1.000000     C
    C   1.0     0.687416     0.321269     0.964018  Biso 1.000000     C
    C   1.0     0.128858     0.323501     0.964460  Biso 1.000000     C
    C   1.0     0.628870     0.324349     0.963844  Biso 1.000000     C
    C   1.0     0.128914     0.527571     0.084685  Biso 1.000000     C
    C   1.0     0.628934     0.527326     0.084828  Biso 1.000000     C
    C   1.0     0.187461     0.525457     0.086296  Biso 1.000000     C
    C   1.0     0.687483     0.525189     0.086387  Biso 1.000000     C
    C   1.0     0.218730     0.601185     0.059429  Biso 1.000000     C
    C   1.0     0.718744     0.600827     0.059400  Biso 1.000000     C
    C   1.0     0.187581     0.676686     0.032127  Biso 1.000000     C
    C   1.0     0.687584     0.676234     0.032011  Biso 1.000000     C
    C   1.0     0.129031     0.673918     0.032618  Biso 1.000000     C
    C   1.0     0.629038     0.673442     0.032491  Biso 1.000000     C
    C   1.0     0.371321     0.025095     0.418019  Biso 1.000000     C
    C   1.0     0.871331     0.025736     0.417827  Biso 1.000000     C
    C   1.0     0.312769     0.022602     0.416795  Biso 1.000000     C
    C   1.0     0.812782     0.023265     0.416534  Biso 1.000000     C
    C   1.0     0.281487     0.100843     0.440363  Biso 1.000000     C
    C   1.0     0.781487     0.101138     0.440582  Biso 1.000000     C
    C   1.0     0.312666     0.179062     0.464137  Biso 1.000000     C
    C   1.0     0.812639     0.179024     0.464846  Biso 1.000000     C
    C   1.0     0.371212     0.176155     0.463920  Biso 1.000000     C
    C   1.0     0.871184     0.176129     0.464661  Biso 1.000000     C
    C   1.0     0.370961     0.972965     0.583590  Biso 1.000000     C
    C   1.0     0.870993     0.973119     0.583849  Biso 1.000000     C
    C   1.0     0.312412     0.975275     0.585153  Biso 1.000000     C
    C   1.0     0.812439     0.975475     0.585394  Biso 1.000000     C
    C   1.0     0.281069     0.898802     0.559364  Biso 1.000000     C
    C   1.0     0.781077     0.899068     0.559550  Biso 1.000000     C
    C   1.0     0.312174     0.822422     0.533109  Biso 1.000000     C
    C   1.0     0.812180     0.822708     0.533258  Biso 1.000000     C
    C   1.0     0.370718     0.825208     0.533357  Biso 1.000000     C
    C   1.0     0.870730     0.825408     0.533586  Biso 1.000000     C
    C   1.0     0.371068     0.524642     0.080902  Biso 1.000000     C
    C   1.0     0.871120     0.524643     0.081164  Biso 1.000000     C
    C   1.0     0.312527     0.522105     0.081968  Biso 1.000000     C
    C   1.0     0.812578     0.522067     0.082285  Biso 1.000000     C
    C   1.0     0.281303     0.601262     0.059558  Biso 1.000000     C
    C   1.0     0.781319     0.600915     0.059479  Biso 1.000000     C
    C   1.0     0.312490     0.680383     0.037003  Biso 1.000000     C
    C   1.0     0.812475     0.679703     0.036390  Biso 1.000000     C
    C   1.0     0.371043     0.677407     0.037227  Biso 1.000000     C
    C   1.0     0.871028     0.676756     0.036549  Biso 1.000000     C
    C   1.0     0.371066     0.472288     0.915881  Biso 1.000000     C
    C   1.0     0.871115     0.473491     0.915887  Biso 1.000000     C
    C   1.0     0.312521     0.474602     0.914456  Biso 1.000000     C
    C   1.0     0.812569     0.475812     0.914356  Biso 1.000000     C
    C   1.0     0.281224     0.398414     0.940734  Biso 1.000000     C
    C   1.0     0.781235     0.399328     0.940218  Biso 1.000000     C
    C   1.0     0.312360     0.322259     0.967291  Biso 1.000000     C
    C   1.0     0.812343     0.322847     0.966419  Biso 1.000000     C
    C   1.0     0.370911     0.324975     0.966783  Biso 1.000000     C
    C   1.0     0.870894     0.325573     0.966047  Biso 1.000000     C
    C   1.0     0.128640     0.974198     0.582187  Biso 1.000000     C
    C   1.0     0.628646     0.974800     0.582008  Biso 1.000000     C
    C   1.0     0.187189     0.976665     0.583481  Biso 1.000000     C
    C   1.0     0.687198     0.977297     0.583236  Biso 1.000000     C
    C   1.0     0.218483     0.898793     0.559431  Biso 1.000000     C
    C   1.0     0.718484     0.899078     0.559644  Biso 1.000000     C
    C   1.0     0.187331     0.820935     0.535131  Biso 1.000000     C
    C   1.0     0.687307     0.820887     0.535826  Biso 1.000000     C
    C   1.0     0.128786     0.823829     0.535319  Biso 1.000000     C
    C   1.0     0.628761     0.823787     0.536044  Biso 1.000000     C
    C   1.0     0.128975     0.026839     0.416131  Biso 1.000000     C
    C   1.0     0.629010     0.026992     0.416389  Biso 1.000000     C
    C   1.0     0.187529     0.024471     0.414594  Biso 1.000000     C
    C   1.0     0.687559     0.024677     0.414833  Biso 1.000000     C
    C   1.0     0.218893     0.100871     0.440442  Biso 1.000000     C
    C   1.0     0.718901     0.101138     0.440637  Biso 1.000000     C
    C   1.0     0.187793     0.177206     0.466769  Biso 1.000000     C
    C   1.0     0.687796     0.177486     0.466931  Biso 1.000000     C
    C   1.0     0.129244     0.174521     0.466430  Biso 1.000000     C
    C   1.0     0.629252     0.174710     0.466670  Biso 1.000000     C
    C   1.0     0.000000     0.339893     0.066393  Biso 1.000000     C
    C   1.0     0.500171     0.339905     0.066392  Biso 1.000000     C
    C   1.0     0.000000     0.302552     0.132105  Biso 1.000000     C
    C   1.0     0.500187     0.302595     0.132112  Biso 1.000000     C
    C   1.0     0.000000     0.202197     0.142805  Biso 1.000000     C
    C   1.0     0.501190     0.202261     0.142834  Biso 1.000000     C
    C   1.0     0.000106     0.166134     0.203533  Biso 1.000000     C
    C   1.0     0.501132     0.166226     0.203568  Biso 1.000000     C
    C   1.0     0.000000     0.229644     0.254708  Biso 1.000000     C
    C   1.0     0.500083     0.229735     0.254731  Biso 1.000000     C
    C   1.0    -0.000063     0.329688     0.243956  Biso 1.000000     C
    C   1.0     0.499097     0.329760     0.243957  Biso 1.000000     C
    C   1.0     0.999930     0.366220     0.183224  Biso 1.000000     C
    C   1.0     0.499156     0.366268     0.183217  Biso 1.000000     C
    C   1.0     0.000000     0.191126     0.320417  Biso 1.000000     C
    C   1.0     0.499974     0.191202     0.320440  Biso 1.000000     C
    C   1.0    -0.000072     0.660093     0.933591  Biso 1.000000     C
    C   1.0     0.499993     0.660056     0.933593  Biso 1.000000     C
    C   1.0    -0.000080     0.697413     0.867876  Biso 1.000000     C
    C   1.0     0.500029     0.697353     0.867870  Biso 1.000000     C
    C   1.0    -0.000140     0.797767     0.857174  Biso 1.000000     C
    C   1.0     0.500000     0.797702     0.857149  Biso 1.000000     C
    C   1.0     0.999875     0.833821     0.796445  Biso 1.000000     C
    C   1.0     0.499940     0.833728     0.796413  Biso 1.000000     C
    C   1.0     0.999957     0.770306     0.745273  Biso 1.000000     C
    C   1.0     0.500059     0.770200     0.745248  Biso 1.000000     C
    C   1.0     0.000027     0.670263     0.756028  Biso 1.000000     C
    C   1.0     0.500186     0.670161     0.756021  Biso 1.000000     C
    C   1.0     0.000012     0.633737     0.816762  Biso 1.000000     C
    C   1.0     0.500076     0.633661     0.816764  Biso 1.000000     C
    C   1.0    -0.000030     0.808836     0.679568  Biso 1.000000     C
    C   1.0     0.500041     0.808745     0.679544  Biso 1.000000     C
    C   1.0    -0.000036     0.159350     0.567112  Biso 1.000000     C
    C   1.0     0.500018     0.159331     0.567096  Biso 1.000000     C
    C   1.0    -0.000087     0.196782     0.632778  Biso 1.000000     C
    C   1.0     0.500023     0.196740     0.632767  Biso 1.000000     C
    C   1.0     0.999880     0.297161     0.643267  Biso 1.000000     C
    C   1.0     0.500011     0.297116     0.643264  Biso 1.000000     C
    C   1.0     0.999896     0.333368     0.703912  Biso 1.000000     C
    C   1.0     0.499931     0.333308     0.703911  Biso 1.000000     C
    C   1.0     0.999947     0.269983     0.755206  Biso 1.000000     C
    C   1.0     0.500042     0.269914     0.755202  Biso 1.000000     C
    C   1.0    -0.000022     0.169913     0.744680  Biso 1.000000     C
    C   1.0     0.500146     0.169846     0.744670  Biso 1.000000     C
    C   1.0     0.999955     0.133222     0.684016  Biso 1.000000     C
    C   1.0     0.500053     0.133168     0.684001  Biso 1.000000     C
    C   1.0     0.999962     0.308857     0.820773  Biso 1.000000     C
    C   1.0     0.500028     0.308807     0.820765  Biso 1.000000     C
    C   1.0     0.000000     0.840594     0.432875  Biso 1.000000     C
    C   1.0     0.499962     0.840592     0.432885  Biso 1.000000     C
    C   1.0     0.000056     0.803153     0.367208  Biso 1.000000     C
    C   1.0     0.499973     0.803176     0.367213  Biso 1.000000     C
    C   1.0     0.000111     0.702774     0.356715  Biso 1.000000     C
    C   1.0     0.500105     0.702801     0.356708  Biso 1.000000     C
    C   1.0     0.000000     0.666570     0.296067  Biso 1.000000     C
    C   1.0     0.500202     0.666615     0.296057  Biso 1.000000     C
    C   1.0     0.000056     0.729959     0.244774  Biso 1.000000     C
    C   1.0     0.499952     0.730014     0.244769  Biso 1.000000     C
    C   1.0     0.999996     0.830028     0.255306  Biso 1.000000     C
    C   1.0     0.499721     0.830080     0.255312  Biso 1.000000     C
    C   1.0     0.000000     0.866715     0.315970  Biso 1.000000     C
    C   1.0     0.499808     0.866752     0.315981  Biso 1.000000     C
    C   1.0     0.000033     0.691121     0.179195  Biso 1.000000     C
    C   1.0     0.499964     0.691163     0.179193  Biso 1.000000     C
    N   1.0     0.099774     0.399414     0.941860  Biso 1.000000     N
    N   1.0     0.599774     0.400373     0.941407  Biso 1.000000     N
    N   1.0     0.099865     0.600386     0.058195  Biso 1.000000     N
    N   1.0     0.599876     0.599984     0.058172  Biso 1.000000     N
    N   1.0     0.400389     0.100327     0.441419  Biso 1.000000     N
    N   1.0     0.900368     0.100636     0.441712  Biso 1.000000     N
    N   1.0     0.399950     0.899402     0.557949  Biso 1.000000     N
    N   1.0     0.899982     0.899541     0.558227  Biso 1.000000     N
    N   1.0     0.400160     0.600710     0.058633  Biso 1.000000     N
    N   1.0     0.900180     0.600373     0.058366  Biso 1.000000     N
    N   1.0     0.400096     0.398926     0.941757  Biso 1.000000     N
    N   1.0     0.900116     0.399839     0.941458  Biso 1.000000     N
    N   1.0     0.099604     0.899309     0.558287  Biso 1.000000     N
    N   1.0     0.599581     0.899590     0.558573  Biso 1.000000     N
    N   1.0     0.099989     0.100405     0.441772  Biso 1.000000     N
    N   1.0     0.600021     0.100530     0.442060  Biso 1.000000     N
    O   1.0     0.999967     0.278915     0.021679  Biso 1.000000     O
    O   1.0     0.501180     0.278938     0.021687  Biso 1.000000     O
    O   1.0    -0.000033     0.431259     0.055949  Biso 1.000000     O
    O   1.0     0.498859     0.431242     0.055932  Biso 1.000000     O
    O   1.0     0.000000     0.098926     0.327895  Biso 1.000000     O
    O   1.0     0.501274     0.099026     0.327904  Biso 1.000000     O
    O   1.0    -0.000008     0.249933     0.365912  Biso 1.000000     O
    O   1.0     0.498732     0.249963     0.365938  Biso 1.000000     O
    O   1.0    -0.000018     0.721083     0.978296  Biso 1.000000     O
    O   1.0     0.501114     0.721036     0.978287  Biso 1.000000     O
    O   1.0     0.000006     0.568728     0.944050  Biso 1.000000     O
    O   1.0     0.498895     0.568712     0.944067  Biso 1.000000     O
    O   1.0    -0.000084     0.901035     0.672103  Biso 1.000000     O
    O   1.0     0.498765     0.900922     0.672094  Biso 1.000000     O
    O   1.0     0.000006     0.750039     0.634066  Biso 1.000000     O
    O   1.0     0.501232     0.749998     0.634035  Biso 1.000000     O
    O   1.0     0.000028     0.220514     0.522397  Biso 1.000000     O
    O   1.0     0.501111     0.220478     0.522389  Biso 1.000000     O
    O   1.0    -0.000003     0.068033     0.556801  Biso 1.000000     O
    O   1.0     0.498886     0.068035     0.556773  Biso 1.000000     O
    O   1.0     0.999937     0.401159     0.827792  Biso 1.000000     O
    O   1.0     0.498802     0.401089     0.827769  Biso 1.000000     O
    O   1.0     0.000029     0.250408     0.866524  Biso 1.000000     O
    O   1.0     0.501225     0.250404     0.866520  Biso 1.000000     O
    O   1.0     0.999944     0.779439     0.477595  Biso 1.000000     O
    O   1.0     0.498877     0.779456     0.477598  Biso 1.000000     O
    O   1.0     0.999973     0.931910     0.443182  Biso 1.000000     O
    O   1.0     0.501091     0.931889     0.443204  Biso 1.000000     O
    O   1.0     0.000000     0.598820     0.172139  Biso 1.000000     O
    O   1.0     0.501265     0.598889     0.172148  Biso 1.000000     O
    O   1.0    -0.000065     0.749604     0.133467  Biso 1.000000     O
    O   1.0     0.498706     0.749606     0.133463  Biso 1.000000     O
   Cd   1.0    -0.000026     0.391179     0.937691  Biso 1.000000    Cd
   Cd   1.0     0.499944     0.391191     0.937671  Biso 1.000000    Cd
   Cd   1.0     0.000000     0.608819     0.062276  Biso 1.000000    Cd
   Cd   1.0     0.499993     0.608775     0.062289  Biso 1.000000    Cd
   Cd   1.0     0.000159     0.109619     0.437816  Biso 1.000000    Cd
   Cd   1.0     0.500211     0.109548     0.437804  Biso 1.000000    Cd
   Cd   1.0     0.999818     0.890340     0.562171  Biso 1.000000    Cd
   Cd   1.0     0.499754     0.890385     0.562178  Biso 1.000000    Cd
