#======================================================================

# CRYSTAL DATA

#----------------------------------------------------------------------

data_VESTA_phase_1


_pd_phase_name                         MOF
_cell_length_a                         15.58300
_cell_length_b                         15.62700
_cell_length_c                         15.67200
_cell_angle_alpha                      68.74700
_cell_angle_beta                       74.06900
_cell_angle_gamma                      111.03400
_symmetry_space_group_name_H-M         "P 1"
_symmetry_Int_Tables_number            1

loop_
_symmetry_equiv_pos_as_xyz
   "x, y, z"

loop_
   _atom_site_label
   _atom_site_occupancy
   _atom_site_fract_x
   _atom_site_fract_y
   _atom_site_fract_z
   _atom_site_adp_type
   _atom_site_B_iso_or_equiv
   _atom_site_type_symbol
    H   1.0     0.273479     0.713657    -0.032257  Biso 1.000000     H
    H   1.0     0.281887     0.840593     0.912682  Biso 1.000000     H
    H   1.0     0.180334     0.735982     0.037730  Biso 1.000000     H
    H   1.0     0.496208     0.955605     0.160627  Biso 1.000000     H
    H   1.0     0.360646     0.898346     0.236465  Biso 1.000000     H
    H   1.0     0.429891     0.021046     0.117262  Biso 1.000000     H
    H   1.0     0.819764     0.787840     0.440009  Biso 1.000000     H
    H   1.0     0.748063     0.661252     0.557995  Biso 1.000000     H
    H   1.0     0.727365     0.766554     0.554194  Biso 1.000000     H
    H   1.0     0.384362     0.545547     0.458788  Biso 1.000000     H
    H   1.0     0.364717     0.601866     0.537656  Biso 1.000000     H
    H   1.0     0.362978     0.479521     0.589468  Biso 1.000000     H
    H   1.0     0.061950     0.745486     0.227931  Biso 1.000000     H
    H   1.0     0.943855     0.697946     0.218535  Biso 1.000000     H
    H   1.0     0.946231     0.723228     0.319501  Biso 1.000000     H
    H   1.0     0.040646     0.159948     0.004082  Biso 1.000000     H
    H   1.0     0.960055     0.099060     0.138842  Biso 1.000000     H
    H   1.0     0.909770     0.051208     0.066539  Biso 1.000000     H
    H   1.0     0.531866     0.758819     0.680350  Biso 1.000000     H
    H   1.0     0.588506     0.805067     0.751426  Biso 1.000000     H
    H   1.0     0.462882     0.782724     0.772276  Biso 1.000000     H
    H   1.0     0.338723     0.344546     0.114604  Biso 1.000000     H
    H   1.0     0.262830     0.404725     0.132577  Biso 1.000000     H
    H   1.0     0.382706     0.454051     0.136172  Biso 1.000000     H
    H   1.0     0.726534     0.286374     0.000000  Biso 1.000000     H
    H   1.0     0.718126     0.159437     0.087324  Biso 1.000000     H
    H   1.0     0.819678     0.264047     0.962275  Biso 1.000000     H
    H   1.0     0.503800     0.044423     0.839383  Biso 1.000000     H
    H   1.0     0.639361     0.101681     0.763545  Biso 1.000000     H
    H   1.0     0.570115     0.978982     0.882749  Biso 1.000000     H
    H   1.0     0.180246     0.212186     0.560004  Biso 1.000000     H
    H   1.0     0.251947     0.338772     0.442017  Biso 1.000000     H
    H   1.0     0.272644     0.233469     0.445821  Biso 1.000000     H
    H   1.0     0.615648     0.454482     0.541224  Biso 1.000000     H
    H   1.0     0.635295     0.398166     0.462352  Biso 1.000000     H
    H   1.0     0.637031     0.520509     0.410544  Biso 1.000000     H
    H   1.0     0.938063     0.254544     0.772080  Biso 1.000000     H
    H   1.0     0.056156     0.302083     0.781480  Biso 1.000000     H
    H   1.0     0.053783     0.276804     0.680511  Biso 1.000000     H
    H   1.0     0.959364     0.840081     0.995930  Biso 1.000000     H
    H   1.0     0.039954     0.900968     0.861170  Biso 1.000000     H
    H   1.0     0.090240     0.948822     0.933472  Biso 1.000000     H
    H   1.0     0.468148     0.241207     0.319659  Biso 1.000000     H
    H   1.0     0.411508     0.194960     0.248581  Biso 1.000000     H
    H   1.0     0.537134     0.217307     0.227730  Biso 1.000000     H
    H   1.0     0.661288     0.655485     0.885409  Biso 1.000000     H
    H   1.0     0.737181     0.595306     0.867435  Biso 1.000000     H
    H   1.0     0.617306     0.545982     0.863838  Biso 1.000000     H
    C   1.0     0.401598     0.883965     0.103135  Biso 1.000000     C
    C   1.0     0.329583     0.808067     0.030546  Biso 1.000000     C
    C   1.0     0.262649     0.772447    -0.015395  Biso 1.000000     C
    C   1.0     0.423871     0.943530     0.156937  Biso 1.000000     C
    C   1.0     0.513574     0.617306     0.481830  Biso 1.000000     C
    C   1.0     0.662333     0.693795     0.477842  Biso 1.000000     C
    C   1.0     0.744083     0.729494     0.509034  Biso 1.000000     C
    C   1.0     0.400065     0.557247     0.518914  Biso 1.000000     C
    C   1.0     0.017574     0.007586     0.097720  Biso 1.000000     C
    C   1.0     0.022531     0.863553     0.170401  Biso 1.000000     C
    C   1.0     0.992149     0.751330     0.237800  Biso 1.000000     C
    C   1.0     0.980038     0.083819     0.074954  Biso 1.000000     C
    C   1.0     0.396460     0.496217    -0.014575  Biso 1.000000     C
    C   1.0     0.469397     0.640359     0.837149  Biso 1.000000     C
    C   1.0     0.515761     0.752973     0.755602  Biso 1.000000     C
    C   1.0     0.342622     0.420547     0.098530  Biso 1.000000     C
    C   1.0     0.598411     0.116063     0.896874  Biso 1.000000     C
    C   1.0     0.670428     0.191963     0.969460  Biso 1.000000     C
    C   1.0     0.737364     0.227583     0.000000  Biso 1.000000     C
    C   1.0     0.576136     0.056498     0.843073  Biso 1.000000     C
    C   1.0     0.486437     0.382723     0.518181  Biso 1.000000     C
    C   1.0     0.337677     0.306232     0.522171  Biso 1.000000     C
    C   1.0     0.255927     0.270531     0.490979  Biso 1.000000     C
    C   1.0     0.599945     0.442784     0.481096  Biso 1.000000     C
    C   1.0     0.982436     0.992443     0.902290  Biso 1.000000     C
    C   1.0     0.977480     0.136477     0.829610  Biso 1.000000     C
    C   1.0     0.007863     0.248700     0.762212  Biso 1.000000     C
    C   1.0     0.019971     0.916210     0.925057  Biso 1.000000     C
    C   1.0     0.603549     0.503812     0.000000  Biso 1.000000     C
    C   1.0     0.530614     0.359669     0.162861  Biso 1.000000     C
    C   1.0     0.484253     0.247055     0.244406  Biso 1.000000     C
    C   1.0     0.657389     0.579484     0.901481  Biso 1.000000     C
    N   1.0     0.446679     0.829522     0.085261  Biso 1.000000     N
    N   1.0     0.328514     0.873443     0.068940  Biso 1.000000     N
    N   1.0     0.399869     0.780289     0.039578  Biso 1.000000     N
    N   1.0     0.585700     0.672000     0.382935  Biso 1.000000     N
    N   1.0     0.558598     0.628068     0.543906  Biso 1.000000     N
    N   1.0     0.680779     0.721679     0.380427  Biso 1.000000     N
    N   1.0     0.116805     0.034141     0.052601  Biso 1.000000     N
    N   1.0     0.955844     0.901024     0.171202  Biso 1.000000     N
    N   1.0     0.119902     0.942033     0.099836  Biso 1.000000     N
    N   1.0     0.414128     0.468916     0.913563  Biso 1.000000     N
    N   1.0     0.431029     0.603274     0.940556  Biso 1.000000     N
    N   1.0     0.460032     0.561109     0.818776  Biso 1.000000     N
    N   1.0     0.553328     0.170506     0.914750  Biso 1.000000     N
    N   1.0     0.671496     0.126588     0.931066  Biso 1.000000     N
    N   1.0     0.600140     0.219739     0.960432  Biso 1.000000     N
    N   1.0     0.414311     0.328030     0.617076  Biso 1.000000     N
    N   1.0     0.441412     0.371959     0.456105  Biso 1.000000     N
    N   1.0     0.319232     0.278349     0.619585  Biso 1.000000     N
    N   1.0     0.883204     0.965888     0.947407  Biso 1.000000     N
    N   1.0     0.044167     0.099006     0.828811  Biso 1.000000     N
    N   1.0     0.880108     0.057997     0.900172  Biso 1.000000     N
    N   1.0     0.585879     0.531111     0.086449  Biso 1.000000     N
    N   1.0     0.568982     0.396755     0.059454  Biso 1.000000     N
    N   1.0     0.539977     0.438918     0.181236  Biso 1.000000     N
   Cu   1.0     0.561836     0.808726     0.102568  Biso 1.000000    Cu
   Cu   1.0     0.243905     0.936369     0.063833  Biso 1.000000    Cu
   Cu   1.0     0.589277     0.691353     0.248113  Biso 1.000000    Cu
   Cu   1.0     0.501321     0.565610     0.690392  Biso 1.000000    Cu
   Cu   1.0     0.251638     0.164883     0.937125  Biso 1.000000    Cu
   Cu   1.0     0.809132     0.811393     0.256450  Biso 1.000000    Cu
   Cu   1.0     0.396442     0.336898     0.909988  Biso 1.000000    Cu
   Cu   1.0     0.436442     0.692923    -0.002205  Biso 1.000000    Cu
   Cu   1.0     0.438168     0.191298     0.897449  Biso 1.000000    Cu
   Cu   1.0     0.756106     0.063662     0.936170  Biso 1.000000    Cu
   Cu   1.0     0.410735     0.308675     0.751897  Biso 1.000000    Cu
   Cu   1.0     0.498689     0.434413     0.309620  Biso 1.000000    Cu
   Cu   1.0     0.748368     0.835143     0.062875  Biso 1.000000    Cu
   Cu   1.0     0.190880     0.188636     0.743565  Biso 1.000000    Cu
   Cu   1.0     0.603554     0.663126     0.090026  Biso 1.000000    Cu
   Cu   1.0     0.563570     0.307107     0.000000  Biso 1.000000    Cu
    I   1.0     0.413157     0.580516     0.250875  Biso 1.000000     I
    I   1.0     0.670023     0.920129     0.167302  Biso 1.000000     I
    I   1.0     0.332809     0.165134     0.085908  Biso 1.000000     I
    I   1.0     0.248716     0.337811     0.828895  Biso 1.000000     I
    I   1.0     0.586849     0.419511     0.749141  Biso 1.000000     I
    I   1.0     0.329989     0.079900     0.832706  Biso 1.000000     I
    I   1.0     0.667200     0.834895     0.914102  Biso 1.000000     I
    I   1.0     0.751295     0.662221     0.171115  Biso 1.000000     I
