#======================================================================

# CRYSTAL DATA

#----------------------------------------------------------------------

data_VESTA_phase_1


_pd_phase_name                         MOF
_cell_length_a                         18.03100
_cell_length_b                         18.03500
_cell_length_c                         19.52200
_cell_angle_alpha                      90.00600
_cell_angle_beta                       90.00400
_cell_angle_gamma                      111.28500
_symmetry_space_group_name_H-M         "P 1"
_symmetry_Int_Tables_number            1

loop_
_symmetry_equiv_pos_as_xyz
   "x, y, z"

loop_
   _atom_site_label
   _atom_site_occupancy
   _atom_site_fract_x
   _atom_site_fract_y
   _atom_site_fract_z
   _atom_site_adp_type
   _atom_site_B_iso_or_equiv
   _atom_site_type_symbol
    O   1.0     0.465000     0.364897     0.758368  Biso 1.000000     O
    O   1.0     0.465001     0.864894     0.758368  Biso 1.000000     O
    O   1.0     0.965013     0.364897     0.758368  Biso 1.000000     O
    O   1.0     0.965013     0.864894     0.758368  Biso 1.000000     O
    O   1.0     0.414704     0.327576     0.613855  Biso 1.000000     O
    O   1.0     0.414705     0.827573     0.613855  Biso 1.000000     O
    O   1.0     0.914716     0.327577     0.613855  Biso 1.000000     O
    O   1.0     0.914717     0.827573     0.613855  Biso 1.000000     O
    O   1.0     0.391901     0.290927     0.767088  Biso 1.000000     O
    O   1.0     0.391902     0.790924     0.767088  Biso 1.000000     O
    O   1.0     0.891914     0.290927     0.767088  Biso 1.000000     O
    O   1.0     0.891914     0.790924     0.767088  Biso 1.000000     O
    O   1.0     0.027587     0.269002     0.669304  Biso 1.000000     O
    O   1.0     0.027588     0.768999     0.669304  Biso 1.000000     O
    O   1.0     0.527599     0.269002     0.669304  Biso 1.000000     O
    O   1.0     0.527600     0.768999     0.669304  Biso 1.000000     O
    O   1.0     0.318121     0.187257     0.847612  Biso 1.000000     O
    O   1.0     0.318122     0.687254     0.847612  Biso 1.000000     O
    O   1.0     0.818134     0.187257     0.847612  Biso 1.000000     O
    O   1.0     0.818135     0.687254     0.847612  Biso 1.000000     O
    O   1.0     0.294623     0.369047     0.611302  Biso 1.000000     O
    O   1.0     0.294624     0.869044     0.611302  Biso 1.000000     O
    O   1.0     0.794635     0.369047     0.611302  Biso 1.000000     O
    O   1.0     0.794636     0.869044     0.611302  Biso 1.000000     O
    O   1.0     0.072095     0.184122     0.750003  Biso 1.000000     O
    O   1.0     0.072096     0.684119     0.750003  Biso 1.000000     O
    O   1.0     0.572108     0.184122     0.750003  Biso 1.000000     O
    O   1.0     0.572109     0.684119     0.750003  Biso 1.000000     O
    O   1.0     0.468302     0.223135     0.841662  Biso 1.000000     O
    O   1.0     0.468303     0.723132     0.841662  Biso 1.000000     O
    O   1.0     0.968315     0.223135     0.841662  Biso 1.000000     O
    O   1.0     0.968316     0.723132     0.841662  Biso 1.000000     O
    O   1.0     0.169779     0.316171     0.712984  Biso 1.000000     O
    O   1.0     0.169780     0.816168     0.712984  Biso 1.000000     O
    O   1.0     0.669791     0.316171     0.712984  Biso 1.000000     O
    O   1.0     0.669792     0.816168     0.712984  Biso 1.000000     O
    O   1.0     0.412780     0.315947     0.896896  Biso 1.000000     O
    O   1.0     0.412781     0.815944     0.896897  Biso 1.000000     O
    O   1.0     0.912793     0.315947     0.896897  Biso 1.000000     O
    O   1.0     0.912794     0.815944     0.896896  Biso 1.000000     O
    O   1.0     0.280047     0.226094     0.588984  Biso 1.000000     O
    O   1.0     0.280048     0.726091     0.588984  Biso 1.000000     O
    O   1.0     0.780060     0.226094     0.588984  Biso 1.000000     O
    O   1.0     0.780061     0.726091     0.588984  Biso 1.000000     O
    O   1.0     0.349592     0.334778     0.503470  Biso 1.000000     O
    O   1.0     0.349593     0.834775     0.503470  Biso 1.000000     O
    O   1.0     0.849604     0.334778     0.503470  Biso 1.000000     O
    O   1.0     0.849605     0.834774     0.503470  Biso 1.000000     O
    O   1.0     0.118266     0.202650     0.627799  Biso 1.000000     O
    O   1.0     0.118267     0.702647     0.627799  Biso 1.000000     O
    O   1.0     0.618279     0.202650     0.627799  Biso 1.000000     O
    O   1.0     0.618280     0.702647     0.627799  Biso 1.000000     O
    O   1.0     0.285016     0.385008     0.258347  Biso 1.000000     O
    O   1.0     0.285017     0.885005     0.258347  Biso 1.000000     O
    O   1.0     0.785029     0.385008     0.258347  Biso 1.000000     O
    O   1.0     0.785030     0.885005     0.258347  Biso 1.000000     O
    O   1.0     0.335298     0.422294     0.113831  Biso 1.000000     O
    O   1.0     0.335299     0.922291     0.113831  Biso 1.000000     O
    O   1.0     0.835311     0.422294     0.113831  Biso 1.000000     O
    O   1.0     0.835312     0.922291     0.113831  Biso 1.000000     O
    O   1.0     0.358149     0.458947     0.267084  Biso 1.000000     O
    O   1.0     0.358151     0.958944     0.267084  Biso 1.000000     O
    O   1.0     0.858162     0.458947     0.267084  Biso 1.000000     O
    O   1.0     0.858163     0.958944     0.267084  Biso 1.000000     O
    O   1.0     0.222492     0.480961     0.169278  Biso 1.000000     O
    O   1.0     0.222493     0.980958     0.169278  Biso 1.000000     O
    O   1.0     0.722505     0.480961     0.169278  Biso 1.000000     O
    O   1.0     0.722506     0.980958     0.169278  Biso 1.000000     O
    O   1.0     0.431928     0.062658     0.347613  Biso 1.000000     O
    O   1.0     0.431929     0.562655     0.347613  Biso 1.000000     O
    O   1.0     0.931941     0.062658     0.347613  Biso 1.000000     O
    O   1.0     0.931942     0.562655     0.347613  Biso 1.000000     O
    O   1.0     0.455411     0.380876     0.111314  Biso 1.000000     O
    O   1.0     0.455412     0.880872     0.111314  Biso 1.000000     O
    O   1.0     0.955423     0.380876     0.111314  Biso 1.000000     O
    O   1.0     0.955424     0.880872     0.111314  Biso 1.000000     O
    O   1.0     0.177918     0.065785     0.249999  Biso 1.000000     O
    O   1.0     0.177919     0.565782     0.249999  Biso 1.000000     O
    O   1.0     0.677931     0.065785     0.249999  Biso 1.000000     O
    O   1.0     0.677932     0.565782     0.249999  Biso 1.000000     O
    O   1.0     0.281745     0.026761     0.341635  Biso 1.000000     O
    O   1.0     0.281746     0.526758     0.341635  Biso 1.000000     O
    O   1.0     0.781758     0.026761     0.341635  Biso 1.000000     O
    O   1.0     0.781759     0.526758     0.341635  Biso 1.000000     O
    O   1.0     0.080312     0.433669     0.212956  Biso 1.000000     O
    O   1.0     0.080313     0.933666     0.212956  Biso 1.000000     O
    O   1.0     0.580324     0.433669     0.212956  Biso 1.000000     O
    O   1.0     0.580325     0.933666     0.212956  Biso 1.000000     O
    O   1.0     0.337274     0.433971     0.396892  Biso 1.000000     O
    O   1.0     0.337275     0.933968     0.396892  Biso 1.000000     O
    O   1.0     0.837287     0.433971     0.396892  Biso 1.000000     O
    O   1.0     0.837287     0.933968     0.396892  Biso 1.000000     O
    O   1.0     0.469948     0.023812     0.088982  Biso 1.000000     O
    O   1.0     0.469949     0.523809     0.088982  Biso 1.000000     O
    O   1.0     0.969961     0.023812     0.088982  Biso 1.000000     O
    O   1.0     0.969962     0.523809     0.088982  Biso 1.000000     O
    O   1.0     0.400448     0.415100     0.000000  Biso 1.000000     O
    O   1.0     0.400449     0.915097     0.000000  Biso 1.000000     O
    O   1.0     0.900461     0.415100     0.000000  Biso 1.000000     O
    O   1.0     0.900462     0.915096     0.000000  Biso 1.000000     O
    O   1.0     0.131703     0.047214     0.127805  Biso 1.000000     O
    O   1.0     0.131704     0.547211     0.127805  Biso 1.000000     O
    O   1.0     0.631715     0.047214     0.127805  Biso 1.000000     O
    O   1.0     0.631716     0.547211     0.127805  Biso 1.000000     O
    O   1.0     0.035002     0.134999     0.238875  Biso 1.000000     O
    O   1.0     0.035003     0.634996     0.238875  Biso 1.000000     O
    O   1.0     0.535015     0.134999     0.238875  Biso 1.000000     O
    O   1.0     0.535015     0.634996     0.238875  Biso 1.000000     O
    O   1.0     0.085319     0.172321     0.383381  Biso 1.000000     O
    O   1.0     0.085320     0.672318     0.383381  Biso 1.000000     O
    O   1.0     0.585331     0.172321     0.383381  Biso 1.000000     O
    O   1.0     0.585332     0.672318     0.383381  Biso 1.000000     O
    O   1.0     0.108121     0.208953     0.230156  Biso 1.000000     O
    O   1.0     0.108122     0.708950     0.230156  Biso 1.000000     O
    O   1.0     0.608134     0.208953     0.230156  Biso 1.000000     O
    O   1.0     0.608135     0.708950     0.230156  Biso 1.000000     O
    O   1.0     0.472472     0.230943     0.327945  Biso 1.000000     O
    O   1.0     0.472473     0.730940     0.327945  Biso 1.000000     O
    O   1.0     0.972484     0.230943     0.327945  Biso 1.000000     O
    O   1.0     0.972485     0.730940     0.327945  Biso 1.000000     O
    O   1.0     0.181859     0.312669     0.149641  Biso 1.000000     O
    O   1.0     0.181860     0.812666     0.149641  Biso 1.000000     O
    O   1.0     0.681872     0.312669     0.149641  Biso 1.000000     O
    O   1.0     0.681873     0.812666     0.149641  Biso 1.000000     O
    O   1.0     0.205430     0.130892     0.385920  Biso 1.000000     O
    O   1.0     0.205431     0.630889     0.385920  Biso 1.000000     O
    O   1.0     0.705443     0.130892     0.385920  Biso 1.000000     O
    O   1.0     0.705444     0.630889     0.385920  Biso 1.000000     O
    O   1.0     0.427935     0.315800     0.247240  Biso 1.000000     O
    O   1.0     0.427936     0.815797     0.247240  Biso 1.000000     O
    O   1.0     0.927948     0.315800     0.247240  Biso 1.000000     O
    O   1.0     0.927949     0.815797     0.247240  Biso 1.000000     O
    O   1.0     0.031662     0.276690     0.155594  Biso 1.000000     O
    O   1.0     0.031663     0.776687     0.155594  Biso 1.000000     O
    O   1.0     0.531675     0.276690     0.155594  Biso 1.000000     O
    O   1.0     0.531676     0.776687     0.155594  Biso 1.000000     O
    O   1.0     0.330287     0.183712     0.284249  Biso 1.000000     O
    O   1.0     0.330288     0.683709     0.284249  Biso 1.000000     O
    O   1.0     0.830300     0.183712     0.284249  Biso 1.000000     O
    O   1.0     0.830301     0.683709     0.284249  Biso 1.000000     O
    O   1.0     0.087259     0.183951     0.100345  Biso 1.000000     O
    O   1.0     0.087260     0.683948     0.100345  Biso 1.000000     O
    O   1.0     0.587271     0.183951     0.100345  Biso 1.000000     O
    O   1.0     0.587272     0.683948     0.100345  Biso 1.000000     O
    O   1.0     0.219962     0.273825     0.408259  Biso 1.000000     O
    O   1.0     0.219963     0.773822     0.408259  Biso 1.000000     O
    O   1.0     0.719975     0.273825     0.408259  Biso 1.000000     O
    O   1.0     0.719976     0.773822     0.408259  Biso 1.000000     O
    O   1.0     0.150442     0.165117     0.493759  Biso 1.000000     O
    O   1.0     0.150443     0.665114     0.493759  Biso 1.000000     O
    O   1.0     0.650454     0.165117     0.493759  Biso 1.000000     O
    O   1.0     0.650455     0.665114     0.493759  Biso 1.000000     O
    O   1.0     0.381734     0.297247     0.369429  Biso 1.000000     O
    O   1.0     0.381735     0.797244     0.369429  Biso 1.000000     O
    O   1.0     0.881747     0.297247     0.369429  Biso 1.000000     O
    O   1.0     0.881748     0.797244     0.369429  Biso 1.000000     O
    O   1.0     0.214986     0.114894     0.738899  Biso 1.000000     O
    O   1.0     0.214987     0.614891     0.738899  Biso 1.000000     O
    O   1.0     0.714999     0.114894     0.738899  Biso 1.000000     O
    O   1.0     0.714999     0.614890     0.738899  Biso 1.000000     O
    O   1.0     0.164738     0.077576     0.883422  Biso 1.000000     O
    O   1.0     0.164739     0.577573     0.883422  Biso 1.000000     O
    O   1.0     0.664751     0.077576     0.883422  Biso 1.000000     O
    O   1.0     0.664752     0.577573     0.883422  Biso 1.000000     O
    O   1.0     0.141863     0.040948     0.730159  Biso 1.000000     O
    O   1.0     0.141864     0.540945     0.730159  Biso 1.000000     O
    O   1.0     0.641876     0.040948     0.730159  Biso 1.000000     O
    O   1.0     0.641877     0.540945     0.730159  Biso 1.000000     O
    O   1.0     0.277592     0.018988     0.827946  Biso 1.000000     O
    O   1.0     0.277593     0.518985     0.827946  Biso 1.000000     O
    O   1.0     0.777604     0.018988     0.827946  Biso 1.000000     O
    O   1.0     0.777605     0.518985     0.827946  Biso 1.000000     O
    O   1.0     0.068058     0.437271     0.649621  Biso 1.000000     O
    O   1.0     0.068059     0.937268     0.649621  Biso 1.000000     O
    O   1.0     0.568071     0.437271     0.649621  Biso 1.000000     O
    O   1.0     0.568072     0.937268     0.649621  Biso 1.000000     O
    O   1.0     0.044673     0.119059     0.885934  Biso 1.000000     O
    O   1.0     0.044674     0.619056     0.885934  Biso 1.000000     O
    O   1.0     0.544686     0.119059     0.885934  Biso 1.000000     O
    O   1.0     0.544687     0.619056     0.885934  Biso 1.000000     O
    O   1.0     0.322113     0.434123     0.747233  Biso 1.000000     O
    O   1.0     0.322114     0.934120     0.747233  Biso 1.000000     O
    O   1.0     0.822126     0.434123     0.747233  Biso 1.000000     O
    O   1.0     0.822127     0.934120     0.747233  Biso 1.000000     O
    O   1.0     0.218233     0.473102     0.655599  Biso 1.000000     O
    O   1.0     0.218233     0.973099     0.655599  Biso 1.000000     O
    O   1.0     0.718245     0.473102     0.655599  Biso 1.000000     O
    O   1.0     0.718246     0.973099     0.655599  Biso 1.000000     O
    O   1.0     0.419782     0.066185     0.784285  Biso 1.000000     O
    O   1.0     0.419783     0.566182     0.784285  Biso 1.000000     O
    O   1.0     0.919795     0.066185     0.784285  Biso 1.000000     O
    O   1.0     0.919796     0.566182     0.784285  Biso 1.000000     O
    O   1.0     0.162753     0.065940     0.600353  Biso 1.000000     O
    O   1.0     0.162754     0.565937     0.600353  Biso 1.000000     O
    O   1.0     0.662766     0.065940     0.600353  Biso 1.000000     O
    O   1.0     0.662767     0.565937     0.600353  Biso 1.000000     O
    O   1.0     0.030065     0.476096     0.908254  Biso 1.000000     O
    O   1.0     0.030066     0.976093     0.908254  Biso 1.000000     O
    O   1.0     0.530078     0.476096     0.908254  Biso 1.000000     O
    O   1.0     0.530079     0.976093     0.908254  Biso 1.000000     O
    O   1.0     0.099590     0.084782    -0.006226  Biso 1.000000     O
    O   1.0     0.099591     0.584779    -0.006226  Biso 1.000000     O
    O   1.0     0.599603     0.084782    -0.006226  Biso 1.000000     O
    O   1.0     0.599604     0.584779    -0.006226  Biso 1.000000     O
    O   1.0     0.368300     0.452665     0.869445  Biso 1.000000     O
    O   1.0     0.368301     0.952661     0.869445  Biso 1.000000     O
    O   1.0     0.868312     0.452665     0.869445  Biso 1.000000     O
    O   1.0     0.868313     0.952661     0.869445  Biso 1.000000     O
   Al   1.0     0.491297     0.347192     0.673489  Biso 1.000000    Al
   Al   1.0     0.491298     0.847189     0.673489  Biso 1.000000    Al
   Al   1.0     0.991309     0.347192     0.673489  Biso 1.000000    Al
   Al   1.0     0.991310     0.847189     0.673489  Biso 1.000000    Al
   Al   1.0     0.429042     0.415686     0.917646  Biso 1.000000    Al
   Al   1.0     0.429043     0.915683     0.917646  Biso 1.000000    Al
   Al   1.0     0.929055     0.415686     0.917646  Biso 1.000000    Al
   Al   1.0     0.929056     0.915683     0.917646  Biso 1.000000    Al
   Al   1.0     0.251676     0.396781     0.682411  Biso 1.000000    Al
   Al   1.0     0.251677     0.896778     0.682411  Biso 1.000000    Al
   Al   1.0     0.751689     0.396781     0.682411  Biso 1.000000    Al
   Al   1.0     0.751690     0.896778     0.682411  Biso 1.000000    Al
   Al   1.0     0.258720     0.402716     0.173468  Biso 1.000000    Al
   Al   1.0     0.258721     0.902713     0.173468  Biso 1.000000    Al
   Al   1.0     0.758733     0.402716     0.173468  Biso 1.000000    Al
   Al   1.0     0.758734     0.902713     0.173468  Biso 1.000000    Al
   Al   1.0     0.321003     0.334230     0.417638  Biso 1.000000    Al
   Al   1.0     0.321004     0.834227     0.417638  Biso 1.000000    Al
   Al   1.0     0.821016     0.334230     0.417638  Biso 1.000000    Al
   Al   1.0     0.821016     0.834227     0.417638  Biso 1.000000    Al
   Al   1.0    -0.001665     0.353098     0.182407  Biso 1.000000    Al
   Al   1.0    -0.001664     0.853095     0.182407  Biso 1.000000    Al
   Al   1.0     0.498348     0.353098     0.182407  Biso 1.000000    Al
   Al   1.0     0.498349     0.853095     0.182407  Biso 1.000000    Al
   Al   1.0     0.008719     0.152720     0.323754  Biso 1.000000    Al
   Al   1.0     0.008720     0.652717     0.323754  Biso 1.000000    Al
   Al   1.0     0.508732     0.152720     0.323754  Biso 1.000000    Al
   Al   1.0     0.508733     0.652717     0.323754  Biso 1.000000    Al
   Al   1.0     0.070978     0.084206     0.079599  Biso 1.000000    Al
   Al   1.0     0.070979     0.584203     0.079599  Biso 1.000000    Al
   Al   1.0     0.570990     0.084206     0.079599  Biso 1.000000    Al
   Al   1.0     0.570991     0.584203     0.079599  Biso 1.000000    Al
   Al   1.0     0.248360     0.103123     0.314819  Biso 1.000000    Al
   Al   1.0     0.248361     0.603120     0.314820  Biso 1.000000    Al
   Al   1.0     0.748373     0.103123     0.314820  Biso 1.000000    Al
   Al   1.0     0.748374     0.603120     0.314820  Biso 1.000000    Al
   Al   1.0     0.241304     0.097188     0.823771  Biso 1.000000    Al
   Al   1.0     0.241305     0.597185     0.823771  Biso 1.000000    Al
   Al   1.0     0.741317     0.097188     0.823771  Biso 1.000000    Al
   Al   1.0     0.741318     0.597185     0.823771  Biso 1.000000    Al
   Al   1.0     0.179012     0.165676     0.579597  Biso 1.000000    Al
   Al   1.0     0.179013     0.665673     0.579597  Biso 1.000000    Al
   Al   1.0     0.679025     0.165676     0.579597  Biso 1.000000    Al
   Al   1.0     0.679026     0.665673     0.579597  Biso 1.000000    Al
   Al   1.0     0.501713     0.146790     0.814841  Biso 1.000000    Al
   Al   1.0     0.501714     0.646787     0.814841  Biso 1.000000    Al
   Al   1.0     0.000000     0.146790     0.814841  Biso 1.000000    Al
   Al   1.0     0.000000     0.646787     0.814841  Biso 1.000000    Al
    P   1.0     0.334494     0.314242     0.579723  Biso 1.000000     P
    P   1.0     0.334495     0.814239     0.579723  Biso 1.000000     P
    P   1.0     0.834506     0.314242     0.579723  Biso 1.000000     P
    P   1.0     0.834507     0.814239     0.579723  Biso 1.000000     P
    P   1.0     0.097255     0.243230     0.689989  Biso 1.000000     P
    P   1.0     0.097256     0.743227     0.689989  Biso 1.000000     P
    P   1.0     0.597267     0.243230     0.689989  Biso 1.000000     P
    P   1.0     0.597268     0.743227     0.689989  Biso 1.000000     P
    P   1.0     0.399417     0.253576     0.840896  Biso 1.000000     P
    P   1.0     0.399418     0.753573     0.840896  Biso 1.000000     P
    P   1.0     0.899430     0.253576     0.840896  Biso 1.000000     P
    P   1.0     0.899430     0.753573     0.840896  Biso 1.000000     P
    P   1.0     0.415519     0.435651     0.079720  Biso 1.000000     P
    P   1.0     0.415520     0.935648     0.079720  Biso 1.000000     P
    P   1.0     0.915532     0.435651     0.079720  Biso 1.000000     P
    P   1.0     0.915533     0.935648     0.079720  Biso 1.000000     P
    P   1.0     0.152781     0.506661     0.189976  Biso 1.000000     P
    P   1.0     0.152782     0.000000     0.189976  Biso 1.000000     P
    P   1.0     0.652793     0.506661     0.189976  Biso 1.000000     P
    P   1.0     0.652794     0.000000     0.189976  Biso 1.000000     P
    P   1.0     0.350637     0.496324     0.340889  Biso 1.000000     P
    P   1.0     0.350638     0.996321     0.340889  Biso 1.000000     P
    P   1.0     0.850649     0.496324     0.340889  Biso 1.000000     P
    P   1.0     0.850650     0.996321     0.340889  Biso 1.000000     P
    P   1.0     0.165534     0.185670     0.417508  Biso 1.000000     P
    P   1.0     0.165535     0.685667     0.417508  Biso 1.000000     P
    P   1.0     0.665547     0.185670     0.417508  Biso 1.000000     P
    P   1.0     0.665548     0.685667     0.417508  Biso 1.000000     P
    P   1.0     0.402783     0.256681     0.307248  Biso 1.000000     P
    P   1.0     0.402784     0.756678     0.307248  Biso 1.000000     P
    P   1.0     0.902796     0.256681     0.307248  Biso 1.000000     P
    P   1.0     0.902797     0.756678     0.307248  Biso 1.000000     P
    P   1.0     0.100589     0.246308     0.156353  Biso 1.000000     P
    P   1.0     0.100590     0.746304     0.156353  Biso 1.000000     P
    P   1.0     0.600602     0.246308     0.156353  Biso 1.000000     P
    P   1.0     0.600603     0.746304     0.156353  Biso 1.000000     P
    P   1.0     0.084521     0.064246     0.917529  Biso 1.000000     P
    P   1.0     0.084522     0.564243     0.917529  Biso 1.000000     P
    P   1.0     0.584533     0.064246     0.917529  Biso 1.000000     P
    P   1.0     0.584534     0.564243     0.917529  Biso 1.000000     P
    P   1.0     0.347271    -0.006764     0.807261  Biso 1.000000     P
    P   1.0     0.347272     0.493233     0.807261  Biso 1.000000     P
    P   1.0     0.847284    -0.006764     0.807261  Biso 1.000000     P
    P   1.0     0.847285     0.493233     0.807261  Biso 1.000000     P
    P   1.0     0.149367     0.003577     0.656350  Biso 1.000000     P
    P   1.0     0.149368     0.503574     0.656350  Biso 1.000000     P
    P   1.0     0.649380     0.003577     0.656350  Biso 1.000000     P
    P   1.0     0.649381     0.503574     0.656350  Biso 1.000000     P
