#======================================================================

# CRYSTAL DATA

#----------------------------------------------------------------------

data_VESTA_phase_1


_pd_phase_name                         MOF
_cell_length_a                         18.05200
_cell_length_b                         18.04100
_cell_length_c                         19.51700
_cell_angle_alpha                      89.99700
_cell_angle_beta                       90.00100
_cell_angle_gamma                      111.21800
_symmetry_space_group_name_H-M         "P 1"
_symmetry_Int_Tables_number            1

loop_
_symmetry_equiv_pos_as_xyz
   "x, y, z"

loop_
   _atom_site_label
   _atom_site_occupancy
   _atom_site_fract_x
   _atom_site_fract_y
   _atom_site_fract_z
   _atom_site_adp_type
   _atom_site_B_iso_or_equiv
   _atom_site_type_symbol
    O   1.0     0.463412     0.365792     0.758384  Biso 1.000000     O
    O   1.0     0.463413     0.865803     0.758384  Biso 1.000000     O
    O   1.0     0.963422     0.365792     0.758384  Biso 1.000000     O
    O   1.0     0.963423     0.865803     0.758384  Biso 1.000000     O
    O   1.0     0.413678     0.328226     0.613878  Biso 1.000000     O
    O   1.0     0.413679     0.828237     0.613878  Biso 1.000000     O
    O   1.0     0.913688     0.328226     0.613878  Biso 1.000000     O
    O   1.0     0.913689     0.828237     0.613878  Biso 1.000000     O
    O   1.0     0.390541     0.291830     0.766938  Biso 1.000000     O
    O   1.0     0.390542     0.791841     0.766939  Biso 1.000000     O
    O   1.0     0.890552     0.291830     0.766938  Biso 1.000000     O
    O   1.0     0.890553     0.791841     0.766938  Biso 1.000000     O
    O   1.0     0.027271     0.270948     0.669279  Biso 1.000000     O
    O   1.0     0.027273     0.770960     0.669279  Biso 1.000000     O
    O   1.0     0.527282     0.270948     0.669279  Biso 1.000000     O
    O   1.0     0.527283     0.770960     0.669279  Biso 1.000000     O
    O   1.0     0.316273     0.188775     0.847620  Biso 1.000000     O
    O   1.0     0.316274     0.688786     0.847620  Biso 1.000000     O
    O   1.0     0.816284     0.188775     0.847620  Biso 1.000000     O
    O   1.0     0.816284     0.688786     0.847620  Biso 1.000000     O
    O   1.0     0.294803     0.371419     0.611124  Biso 1.000000     O
    O   1.0     0.294803     0.871429     0.611124  Biso 1.000000     O
    O   1.0     0.794813     0.371419     0.611124  Biso 1.000000     O
    O   1.0     0.794814     0.871429     0.611124  Biso 1.000000     O
    O   1.0     0.070507     0.184871     0.749688  Biso 1.000000     O
    O   1.0     0.070508     0.684881     0.749688  Biso 1.000000     O
    O   1.0     0.570518     0.184871     0.749688  Biso 1.000000     O
    O   1.0     0.570518     0.684881     0.749688  Biso 1.000000     O
    O   1.0     0.465984     0.222912     0.841338  Biso 1.000000     O
    O   1.0     0.465984     0.722923     0.841338  Biso 1.000000     O
    O   1.0     0.965994     0.222912     0.841338  Biso 1.000000     O
    O   1.0     0.965995     0.722923     0.841337  Biso 1.000000     O
    O   1.0     0.169476     0.315740     0.712093  Biso 1.000000     O
    O   1.0     0.169477     0.815750     0.712093  Biso 1.000000     O
    O   1.0     0.669486     0.315740     0.712093  Biso 1.000000     O
    O   1.0     0.669488     0.815751     0.712094  Biso 1.000000     O
    O   1.0     0.412101     0.316802     0.896718  Biso 1.000000     O
    O   1.0     0.412102     0.816813     0.896718  Biso 1.000000     O
    O   1.0     0.912111     0.316802     0.896718  Biso 1.000000     O
    O   1.0     0.912112     0.816813     0.896718  Biso 1.000000     O
    O   1.0     0.278422     0.227535     0.591554  Biso 1.000000     O
    O   1.0     0.278423     0.727546     0.591554  Biso 1.000000     O
    O   1.0     0.778432     0.227535     0.591554  Biso 1.000000     O
    O   1.0     0.778433     0.727546     0.591554  Biso 1.000000     O
    O   1.0     0.347405     0.333461     0.503676  Biso 1.000000     O
    O   1.0     0.347406     0.833472     0.503676  Biso 1.000000     O
    O   1.0     0.847416     0.333461     0.503676  Biso 1.000000     O
    O   1.0     0.847417     0.833472     0.503676  Biso 1.000000     O
    O   1.0     0.115585     0.202335     0.627131  Biso 1.000000     O
    O   1.0     0.115586     0.702346     0.627131  Biso 1.000000     O
    O   1.0     0.615595     0.202335     0.627131  Biso 1.000000     O
    O   1.0     0.615597     0.702346     0.627131  Biso 1.000000     O
    O   1.0     0.286483     0.384201     0.258324  Biso 1.000000     O
    O   1.0     0.286485     0.884211     0.258323  Biso 1.000000     O
    O   1.0     0.786494     0.384201     0.258324  Biso 1.000000     O
    O   1.0     0.786495     0.884211     0.258323  Biso 1.000000     O
    O   1.0     0.336126     0.421894     0.113789  Biso 1.000000     O
    O   1.0     0.336127     0.921905     0.113789  Biso 1.000000     O
    O   1.0     0.836137     0.421894     0.113789  Biso 1.000000     O
    O   1.0     0.836138     0.921905     0.113789  Biso 1.000000     O
    O   1.0     0.359391     0.458127     0.266883  Biso 1.000000     O
    O   1.0     0.359392     0.958137     0.266883  Biso 1.000000     O
    O   1.0     0.859401     0.458127     0.266883  Biso 1.000000     O
    O   1.0     0.859403     0.958137     0.266883  Biso 1.000000     O
    O   1.0     0.222594     0.479153     0.169314  Biso 1.000000     O
    O   1.0     0.222595     0.979164     0.169315  Biso 1.000000     O
    O   1.0     0.722604     0.479153     0.169314  Biso 1.000000     O
    O   1.0     0.722605     0.979164     0.169315  Biso 1.000000     O
    O   1.0     0.433652     0.061161     0.347571  Biso 1.000000     O
    O   1.0     0.433653     0.561172     0.347572  Biso 1.000000     O
    O   1.0     0.933662     0.061161     0.347571  Biso 1.000000     O
    O   1.0     0.933663     0.561172     0.347572  Biso 1.000000     O
    O   1.0     0.454986     0.378684     0.111179  Biso 1.000000     O
    O   1.0     0.454987     0.878695     0.111179  Biso 1.000000     O
    O   1.0     0.954996     0.378683     0.111179  Biso 1.000000     O
    O   1.0     0.954997     0.878695     0.111179  Biso 1.000000     O
    O   1.0     0.179290     0.065154     0.249730  Biso 1.000000     O
    O   1.0     0.179291     0.565164     0.249730  Biso 1.000000     O
    O   1.0     0.679300     0.065154     0.249730  Biso 1.000000     O
    O   1.0     0.679302     0.565165     0.249730  Biso 1.000000     O
    O   1.0     0.283930     0.027022     0.341251  Biso 1.000000     O
    O   1.0     0.283931     0.527033     0.341252  Biso 1.000000     O
    O   1.0     0.783941     0.027022     0.341251  Biso 1.000000     O
    O   1.0     0.783942     0.527033     0.341252  Biso 1.000000     O
    O   1.0     0.080365     0.434302     0.212093  Biso 1.000000     O
    O   1.0     0.080366     0.934313     0.212094  Biso 1.000000     O
    O   1.0     0.580376     0.434302     0.212094  Biso 1.000000     O
    O   1.0     0.580377     0.934313     0.212094  Biso 1.000000     O
    O   1.0     0.337810     0.433155     0.396662  Biso 1.000000     O
    O   1.0     0.337811     0.933166     0.396662  Biso 1.000000     O
    O   1.0     0.837820     0.433155     0.396662  Biso 1.000000     O
    O   1.0     0.837821     0.933166     0.396662  Biso 1.000000     O
    O   1.0     0.471420     0.022573     0.091550  Biso 1.000000     O
    O   1.0     0.471422     0.522583     0.091550  Biso 1.000000     O
    O   1.0     0.971430     0.022573     0.091550  Biso 1.000000     O
    O   1.0     0.971432     0.522583     0.091550  Biso 1.000000     O
    O   1.0     0.402521     0.416641     0.000000  Biso 1.000000     O
    O   1.0     0.402523     0.916653     0.000000  Biso 1.000000     O
    O   1.0     0.902531     0.416641     0.000000  Biso 1.000000     O
    O   1.0     0.902533     0.916653     0.000000  Biso 1.000000     O
    O   1.0     0.134264     0.047736     0.127151  Biso 1.000000     O
    O   1.0     0.134266     0.547748     0.127151  Biso 1.000000     O
    O   1.0     0.634274     0.047736     0.127151  Biso 1.000000     O
    O   1.0     0.634276     0.547748     0.127151  Biso 1.000000     O
    O   1.0     0.036458     0.134254     0.238812  Biso 1.000000     O
    O   1.0     0.036459     0.634265     0.238813  Biso 1.000000     O
    O   1.0     0.536469     0.134254     0.238812  Biso 1.000000     O
    O   1.0     0.536469     0.634265     0.238813  Biso 1.000000     O
    O   1.0     0.086206     0.171758     0.383339  Biso 1.000000     O
    O   1.0     0.086207     0.671769     0.383339  Biso 1.000000     O
    O   1.0     0.586216     0.171758     0.383339  Biso 1.000000     O
    O   1.0     0.586217     0.671769     0.383339  Biso 1.000000     O
    O   1.0     0.109307     0.208248     0.230286  Biso 1.000000     O
    O   1.0     0.109308     0.708260     0.230286  Biso 1.000000     O
    O   1.0     0.609317     0.208248     0.230286  Biso 1.000000     O
    O   1.0     0.609318     0.708260     0.230286  Biso 1.000000     O
    O   1.0     0.472567     0.228997     0.327940  Biso 1.000000     O
    O   1.0     0.472568     0.729008     0.327940  Biso 1.000000     O
    O   1.0     0.972577     0.228997     0.327940  Biso 1.000000     O
    O   1.0     0.972578     0.729008     0.327941  Biso 1.000000     O
    O   1.0     0.183591     0.311307     0.149607  Biso 1.000000     O
    O   1.0     0.183591     0.811318     0.149607  Biso 1.000000     O
    O   1.0     0.683601     0.311307     0.149607  Biso 1.000000     O
    O   1.0     0.683602     0.811318     0.149607  Biso 1.000000     O
    O   1.0     0.205061     0.128531     0.386109  Biso 1.000000     O
    O   1.0     0.205062     0.628542     0.386108  Biso 1.000000     O
    O   1.0     0.705071     0.128531     0.386109  Biso 1.000000     O
    O   1.0     0.705072     0.628542     0.386109  Biso 1.000000     O
    O   1.0     0.429366     0.315108     0.247529  Biso 1.000000     O
    O   1.0     0.429367     0.815119     0.247529  Biso 1.000000     O
    O   1.0     0.929377     0.315109     0.247529  Biso 1.000000     O
    O   1.0     0.929377     0.815119     0.247529  Biso 1.000000     O
    O   1.0     0.033879     0.277133     0.155836  Biso 1.000000     O
    O   1.0     0.033879     0.777144     0.155836  Biso 1.000000     O
    O   1.0     0.533889     0.277133     0.155836  Biso 1.000000     O
    O   1.0     0.533890     0.777144     0.155836  Biso 1.000000     O
    O   1.0     0.330364     0.184265     0.285124  Biso 1.000000     O
    O   1.0     0.330365     0.684276     0.285124  Biso 1.000000     O
    O   1.0     0.830374     0.184266     0.285124  Biso 1.000000     O
    O   1.0     0.830376     0.684276     0.285124  Biso 1.000000     O
    O   1.0     0.087822     0.183264     0.100499  Biso 1.000000     O
    O   1.0     0.087822     0.683274     0.100499  Biso 1.000000     O
    O   1.0     0.587832     0.183264     0.100499  Biso 1.000000     O
    O   1.0     0.587833     0.683274     0.100499  Biso 1.000000     O
    O   1.0     0.221477     0.272430     0.405659  Biso 1.000000     O
    O   1.0     0.221478     0.772441     0.405659  Biso 1.000000     O
    O   1.0     0.721487     0.272430     0.405659  Biso 1.000000     O
    O   1.0     0.721488     0.772441     0.405659  Biso 1.000000     O
    O   1.0     0.152476     0.166527     0.493546  Biso 1.000000     O
    O   1.0     0.152477     0.666538     0.493546  Biso 1.000000     O
    O   1.0     0.652486     0.166527     0.493546  Biso 1.000000     O
    O   1.0     0.652487     0.666538     0.493546  Biso 1.000000     O
    O   1.0     0.384322     0.297670     0.370092  Biso 1.000000     O
    O   1.0     0.384323     0.797681     0.370092  Biso 1.000000     O
    O   1.0     0.884333     0.297670     0.370092  Biso 1.000000     O
    O   1.0     0.884334     0.797681     0.370092  Biso 1.000000     O
    O   1.0     0.213405     0.115791     0.738879  Biso 1.000000     O
    O   1.0     0.213406     0.615802     0.738879  Biso 1.000000     O
    O   1.0     0.713415     0.115791     0.738879  Biso 1.000000     O
    O   1.0     0.713416     0.615802     0.738879  Biso 1.000000     O
    O   1.0     0.163718     0.078201     0.883396  Biso 1.000000     O
    O   1.0     0.163718     0.578212     0.883396  Biso 1.000000     O
    O   1.0     0.663728     0.078201     0.883396  Biso 1.000000     O
    O   1.0     0.663729     0.578212     0.883396  Biso 1.000000     O
    O   1.0     0.140525     0.041835     0.730331  Biso 1.000000     O
    O   1.0     0.140527     0.541846     0.730331  Biso 1.000000     O
    O   1.0     0.640536     0.041835     0.730332  Biso 1.000000     O
    O   1.0     0.640537     0.541845     0.730331  Biso 1.000000     O
    O   1.0     0.277318     0.020935     0.827947  Biso 1.000000     O
    O   1.0     0.277319     0.520946     0.827947  Biso 1.000000     O
    O   1.0     0.777328     0.020935     0.827947  Biso 1.000000     O
    O   1.0     0.777329     0.520946     0.827947  Biso 1.000000     O
    O   1.0     0.066253     0.438802     0.649644  Biso 1.000000     O
    O   1.0     0.066255     0.938813     0.649644  Biso 1.000000     O
    O   1.0     0.566264     0.438802     0.649644  Biso 1.000000     O
    O   1.0     0.566265     0.938813     0.649644  Biso 1.000000     O
    O   1.0     0.044809     0.121348     0.886065  Biso 1.000000     O
    O   1.0     0.044810     0.621360     0.886065  Biso 1.000000     O
    O   1.0     0.544819     0.121348     0.886065  Biso 1.000000     O
    O   1.0     0.544820     0.621360     0.886065  Biso 1.000000     O
    O   1.0     0.320505     0.434855     0.747522  Biso 1.000000     O
    O   1.0     0.320506     0.934865     0.747522  Biso 1.000000     O
    O   1.0     0.820515     0.434855     0.747522  Biso 1.000000     O
    O   1.0     0.820517     0.934866     0.747522  Biso 1.000000     O
    O   1.0     0.215974     0.472963     0.655915  Biso 1.000000     O
    O   1.0     0.215975     0.972974     0.655916  Biso 1.000000     O
    O   1.0     0.715984     0.472964     0.655915  Biso 1.000000     O
    O   1.0     0.715985     0.972974     0.655916  Biso 1.000000     O
    O   1.0     0.419502     0.065717     0.785071  Biso 1.000000     O
    O   1.0     0.419503     0.565728     0.785072  Biso 1.000000     O
    O   1.0     0.919512     0.065718     0.785071  Biso 1.000000     O
    O   1.0     0.919513     0.565728     0.785072  Biso 1.000000     O
    O   1.0     0.162069     0.066829     0.600553  Biso 1.000000     O
    O   1.0     0.162070     0.566840     0.600553  Biso 1.000000     O
    O   1.0     0.662079     0.066829     0.600553  Biso 1.000000     O
    O   1.0     0.662080     0.566840     0.600553  Biso 1.000000     O
    O   1.0     0.028469     0.477489     0.905678  Biso 1.000000     O
    O   1.0     0.028470     0.977499     0.905678  Biso 1.000000     O
    O   1.0     0.528479     0.477489     0.905678  Biso 1.000000     O
    O   1.0     0.528481     0.977499     0.905678  Biso 1.000000     O
    O   1.0     0.097373     0.083436    -0.006452  Biso 1.000000     O
    O   1.0     0.097374     0.583448    -0.006452  Biso 1.000000     O
    O   1.0     0.597383     0.083436    -0.006452  Biso 1.000000     O
    O   1.0     0.597385     0.583448    -0.006452  Biso 1.000000     O
    O   1.0     0.365646     0.452326     0.870058  Biso 1.000000     O
    O   1.0     0.365648     0.952338     0.870058  Biso 1.000000     O
    O   1.0     0.865656     0.452326     0.870058  Biso 1.000000     O
    O   1.0     0.865658     0.952338     0.870058  Biso 1.000000     O
   Al   1.0     0.490159     0.348470     0.673547  Biso 1.000000    Al
   Al   1.0     0.490160     0.848481     0.673548  Biso 1.000000    Al
   Al   1.0     0.990170     0.348470     0.673547  Biso 1.000000    Al
   Al   1.0     0.990171     0.848481     0.673548  Biso 1.000000    Al
   Al   1.0     0.428198     0.416538     0.917174  Biso 1.000000    Al
   Al   1.0     0.428199     0.916549     0.917174  Biso 1.000000    Al
   Al   1.0     0.928208     0.416538     0.917174  Biso 1.000000    Al
   Al   1.0     0.928210     0.916549     0.917174  Biso 1.000000    Al
   Al   1.0     0.250620     0.397422     0.682385  Biso 1.000000    Al
   Al   1.0     0.250621     0.897433     0.682385  Biso 1.000000    Al
   Al   1.0     0.750630     0.397422     0.682385  Biso 1.000000    Al
   Al   1.0     0.750632     0.897433     0.682385  Biso 1.000000    Al
   Al   1.0     0.259703     0.401617     0.173520  Biso 1.000000    Al
   Al   1.0     0.259704     0.901627     0.173520  Biso 1.000000    Al
   Al   1.0     0.759713     0.401617     0.173520  Biso 1.000000    Al
   Al   1.0     0.759714     0.901627     0.173520  Biso 1.000000    Al
   Al   1.0     0.321733     0.333439     0.417168  Biso 1.000000    Al
   Al   1.0     0.321734     0.833450     0.417168  Biso 1.000000    Al
   Al   1.0     0.821743     0.333439     0.417168  Biso 1.000000    Al
   Al   1.0     0.821744     0.833450     0.417168  Biso 1.000000    Al
   Al   1.0    -0.000790     0.352632     0.182383  Biso 1.000000    Al
   Al   1.0    -0.000789     0.852643     0.182383  Biso 1.000000    Al
   Al   1.0     0.499221     0.352632     0.182383  Biso 1.000000    Al
   Al   1.0     0.499222     0.852643     0.182383  Biso 1.000000    Al
   Al   1.0     0.009723     0.151511     0.323669  Biso 1.000000    Al
   Al   1.0     0.009724     0.651522     0.323669  Biso 1.000000    Al
   Al   1.0     0.509733     0.151511     0.323669  Biso 1.000000    Al
   Al   1.0     0.509734     0.651522     0.323669  Biso 1.000000    Al
   Al   1.0     0.071695     0.083521     0.080046  Biso 1.000000    Al
   Al   1.0     0.071697     0.583532     0.080046  Biso 1.000000    Al
   Al   1.0     0.571706     0.083521     0.080046  Biso 1.000000    Al
   Al   1.0     0.571707     0.583532     0.080046  Biso 1.000000    Al
   Al   1.0     0.249243     0.102556     0.314829  Biso 1.000000    Al
   Al   1.0     0.249244     0.602567     0.314829  Biso 1.000000    Al
   Al   1.0     0.749253     0.102556     0.314829  Biso 1.000000    Al
   Al   1.0     0.749255     0.602567     0.314829  Biso 1.000000    Al
   Al   1.0     0.240177     0.098446     0.823705  Biso 1.000000    Al
   Al   1.0     0.240178     0.598457     0.823705  Biso 1.000000    Al
   Al   1.0     0.740187     0.098446     0.823705  Biso 1.000000    Al
   Al   1.0     0.740188     0.598457     0.823705  Biso 1.000000    Al
   Al   1.0     0.178157     0.166546     0.580051  Biso 1.000000    Al
   Al   1.0     0.178158     0.666557     0.580051  Biso 1.000000    Al
   Al   1.0     0.678167     0.166546     0.580051  Biso 1.000000    Al
   Al   1.0     0.678169     0.666557     0.580051  Biso 1.000000    Al
   Al   1.0     0.500634     0.147389     0.814820  Biso 1.000000    Al
   Al   1.0     0.500635     0.647400     0.814820  Biso 1.000000    Al
   Al   1.0     0.000000     0.147389     0.814820  Biso 1.000000    Al
   Al   1.0     0.000000     0.647400     0.814820  Biso 1.000000    Al
    P   1.0     0.333308     0.315037     0.580325  Biso 1.000000     P
    P   1.0     0.333309     0.815048     0.580325  Biso 1.000000     P
    P   1.0     0.833319     0.315037     0.580325  Biso 1.000000     P
    P   1.0     0.833320     0.815048     0.580325  Biso 1.000000     P
    P   1.0     0.096035     0.243750     0.689539  Biso 1.000000     P
    P   1.0     0.096036     0.743761     0.689539  Biso 1.000000     P
    P   1.0     0.596046     0.243750     0.689539  Biso 1.000000     P
    P   1.0     0.596047     0.743761     0.689539  Biso 1.000000     P
    P   1.0     0.397854     0.254317     0.840734  Biso 1.000000     P
    P   1.0     0.397855     0.754327     0.840734  Biso 1.000000     P
    P   1.0     0.897864     0.254317     0.840734  Biso 1.000000     P
    P   1.0     0.897865     0.754328     0.840734  Biso 1.000000     P
    P   1.0     0.416537     0.435079     0.080312  Biso 1.000000     P
    P   1.0     0.416538     0.935090     0.080312  Biso 1.000000     P
    P   1.0     0.916548     0.435079     0.080312  Biso 1.000000     P
    P   1.0     0.916549     0.935090     0.080312  Biso 1.000000     P
    P   1.0     0.153800     0.506314     0.189560  Biso 1.000000     P
    P   1.0     0.153801     0.000000     0.189560  Biso 1.000000     P
    P   1.0     0.653811     0.506314     0.189560  Biso 1.000000     P
    P   1.0     0.653812     0.000000     0.189560  Biso 1.000000     P
    P   1.0     0.352068     0.495638     0.340672  Biso 1.000000     P
    P   1.0     0.352069     0.995648     0.340672  Biso 1.000000     P
    P   1.0     0.852078     0.495638     0.340673  Biso 1.000000     P
    P   1.0     0.852080     0.995648     0.340672  Biso 1.000000     P
    P   1.0     0.166574     0.184935     0.416894  Biso 1.000000     P
    P   1.0     0.166574     0.684946     0.416894  Biso 1.000000     P
    P   1.0     0.666584     0.184935     0.416894  Biso 1.000000     P
    P   1.0     0.666585     0.684946     0.416894  Biso 1.000000     P
    P   1.0     0.403830     0.256231     0.307678  Biso 1.000000     P
    P   1.0     0.403831     0.756242     0.307678  Biso 1.000000     P
    P   1.0     0.903840     0.256232     0.307678  Biso 1.000000     P
    P   1.0     0.903841     0.756242     0.307678  Biso 1.000000     P
    P   1.0     0.102020     0.245748     0.156477  Biso 1.000000     P
    P   1.0     0.102021     0.745759     0.156477  Biso 1.000000     P
    P   1.0     0.602031     0.245748     0.156477  Biso 1.000000     P
    P   1.0     0.602032     0.745759     0.156477  Biso 1.000000     P
    P   1.0     0.083321     0.064991     0.916907  Biso 1.000000     P
    P   1.0     0.083322     0.565002     0.916907  Biso 1.000000     P
    P   1.0     0.583331     0.064991     0.916907  Biso 1.000000     P
    P   1.0     0.583332     0.565002     0.916907  Biso 1.000000     P
    P   1.0     0.346069    -0.006270     0.807658  Biso 1.000000     P
    P   1.0     0.346069     0.493741     0.807658  Biso 1.000000     P
    P   1.0     0.846079    -0.006270     0.807658  Biso 1.000000     P
    P   1.0     0.846080     0.493741     0.807658  Biso 1.000000     P
    P   1.0     0.147830     0.004338     0.656531  Biso 1.000000     P
    P   1.0     0.147832     0.504348     0.656531  Biso 1.000000     P
    P   1.0     0.647841     0.004338     0.656531  Biso 1.000000     P
    P   1.0     0.647842     0.504349     0.656531  Biso 1.000000     P
