#======================================================================

# CRYSTAL DATA

#----------------------------------------------------------------------

data_VESTA_phase_1


_pd_phase_name                         MOF
_cell_length_a                         14.83000
_cell_length_b                         18.76200
_cell_length_c                         33.92000
_cell_angle_alpha                      105.07700
_cell_angle_beta                       90.00000
_cell_angle_gamma                      113.28000
_symmetry_space_group_name_H-M         "P 1"
_symmetry_Int_Tables_number            1

loop_
_symmetry_equiv_pos_as_xyz
   "x, y, z"

loop_
   _atom_site_label
   _atom_site_occupancy
   _atom_site_fract_x
   _atom_site_fract_y
   _atom_site_fract_z
   _atom_site_adp_type
   _atom_site_B_iso_or_equiv
   _atom_site_type_symbol
    H   1.0     0.264398     0.277119     0.590714  Biso 1.000000     H
    H   1.0     0.398558     0.385121     0.643438  Biso 1.000000     H
    H   1.0     0.178436     0.461037     0.700546  Biso 1.000000     H
    H   1.0     0.051436     0.348683     0.645401  Biso 1.000000     H
    H   1.0     0.863332     0.705991     0.794420  Biso 1.000000     H
    H   1.0     0.682636     0.677410     0.795205  Biso 1.000000     H
    H   1.0     0.628555     0.504073     0.675980  Biso 1.000000     H
    H   1.0     0.809977     0.538270     0.680388  Biso 1.000000     H
    H   1.0     0.187810     0.672518     0.846173  Biso 1.000000     H
    H   1.0     0.234139     0.608734     0.779639  Biso 1.000000     H
    H   1.0     0.522330     0.678711     0.843059  Biso 1.000000     H
    H   1.0     0.463819     0.735891     0.907220  Biso 1.000000     H
    H   1.0     0.349980     0.664947     0.988497  Biso 1.000000     H
    H   1.0     0.505640     0.729232     0.018644  Biso 1.000000     H
    H   1.0     0.615098     0.964335    -0.002328  Biso 1.000000     H
    H   1.0     0.451919     0.892327     0.970257  Biso 1.000000     H
    H   1.0     0.100728     0.136617     0.120899  Biso 1.000000     H
    H   1.0     0.956250     0.021400     0.128007  Biso 1.000000     H
    H   1.0     0.847765    -0.006892     0.004518  Biso 1.000000     H
    H   1.0     0.000000     0.110444     0.002394  Biso 1.000000     H
    H   1.0     0.598824     0.633502     0.142647  Biso 1.000000     H
    H   1.0     0.610095     0.708055     0.089664  Biso 1.000000     H
    H   1.0     0.838997     0.916883     0.172717  Biso 1.000000     H
    H   1.0     0.815046     0.835543     0.223424  Biso 1.000000     H
    H   1.0     0.022452     0.285894     0.080184  Biso 1.000000     H
    H   1.0    -0.002206     0.395124     0.132622  Biso 1.000000     H
    H   1.0     0.293636     0.469593     0.189524  Biso 1.000000     H
    H   1.0     0.306714     0.356008     0.134678  Biso 1.000000     H
    H   1.0     0.865262     0.716173     0.284081  Biso 1.000000     H
    H   1.0     0.007533     0.687505     0.284728  Biso 1.000000     H
    H   1.0     0.897704     0.514366     0.165477  Biso 1.000000     H
    H   1.0     0.750542     0.548647     0.170028  Biso 1.000000     H
    H   1.0     0.498658     0.681237     0.333922  Biso 1.000000     H
    H   1.0     0.387220     0.617904     0.267764  Biso 1.000000     H
    H   1.0     0.170949     0.688829     0.332388  Biso 1.000000     H
    H   1.0     0.287864     0.745458     0.396124  Biso 1.000000     H
    H   1.0     0.331098     0.674609     0.477177  Biso 1.000000     H
    H   1.0     0.227154     0.717835     0.528929  Biso 1.000000     H
    H   1.0     0.353281     0.952706     0.507702  Biso 1.000000     H
    H   1.0     0.456977     0.901738     0.458669  Biso 1.000000     H
    H   1.0     0.036752     0.129456     0.631778  Biso 1.000000     H
    H   1.0     0.073761     0.013285     0.638850  Biso 1.000000     H
    H   1.0     0.151598    -0.017106     0.514980  Biso 1.000000     H
    H   1.0     0.112136     0.101211     0.512898  Biso 1.000000     H
    H   1.0     0.035074     0.622419     0.652649  Biso 1.000000     H
    H   1.0     0.099134     0.696895     0.599721  Biso 1.000000     H
    H   1.0     0.084529     0.907350     0.683540  Biso 1.000000     H
    H   1.0     0.026031     0.825910     0.734124  Biso 1.000000     H
    H   1.0     0.996617     0.726731     0.940965  Biso 1.000000     H
    H   1.0     0.000000     0.617505     0.888520  Biso 1.000000     H
    H   1.0     0.725420     0.543065     0.831624  Biso 1.000000     H
    H   1.0     0.712355     0.656644     0.886479  Biso 1.000000     H
    H   1.0     0.153794     0.296462     0.737076  Biso 1.000000     H
    H   1.0     0.000000     0.325116     0.736422  Biso 1.000000     H
    H   1.0     0.121324     0.498273     0.855670  Biso 1.000000     H
    H   1.0     0.268496     0.464005     0.851126  Biso 1.000000     H
    H   1.0     0.520432     0.331434     0.687201  Biso 1.000000     H
    H   1.0     0.631860     0.394772     0.753363  Biso 1.000000     H
    H   1.0     0.848155     0.323867     0.688746  Biso 1.000000     H
    H   1.0     0.731246     0.267230     0.625006  Biso 1.000000     H
    H   1.0     0.687998     0.338055     0.543947  Biso 1.000000     H
    H   1.0     0.791956     0.294829     0.492203  Biso 1.000000     H
    H   1.0     0.665835     0.059966     0.513438  Biso 1.000000     H
    H   1.0     0.562127     0.110933     0.562463  Biso 1.000000     H
    H   1.0     0.982365     0.883195     0.389381  Biso 1.000000     H
    H   1.0     0.945372     0.999370     0.382303  Biso 1.000000     H
    H   1.0     0.867507     0.000000     0.506169  Biso 1.000000     H
    H   1.0     0.906956     0.911449     0.508257  Biso 1.000000     H
    H   1.0     0.984067     0.390256     0.368510  Biso 1.000000     H
    H   1.0     0.920029     0.315770     0.421435  Biso 1.000000     H
    H   1.0     0.934619     0.105323     0.337602  Biso 1.000000     H
    H   1.0     0.993093     0.186772     0.287020  Biso 1.000000     H
    H   1.0     0.754709     0.735563     0.430437  Biso 1.000000     H
    H   1.0     0.620549     0.627568     0.377711  Biso 1.000000     H
    H   1.0     0.840650     0.551599     0.320623  Biso 1.000000     H
    H   1.0     0.967652     0.663946     0.375770  Biso 1.000000     H
    H   1.0     0.155761     0.306686     0.226738  Biso 1.000000     H
    H   1.0     0.336455     0.335252     0.225956  Biso 1.000000     H
    H   1.0     0.390550     0.508629     0.345168  Biso 1.000000     H
    H   1.0     0.209131     0.474448     0.340757  Biso 1.000000     H
    H   1.0     0.831274     0.340138     0.174985  Biso 1.000000     H
    H   1.0     0.784944     0.403921     0.241520  Biso 1.000000     H
    H   1.0     0.496764     0.333967     0.178097  Biso 1.000000     H
    H   1.0     0.555273     0.276784     0.113936  Biso 1.000000     H
    H   1.0     0.669098     0.347711     0.032662  Biso 1.000000     H
    H   1.0     0.513441     0.283427     0.000000  Biso 1.000000     H
    H   1.0     0.403981     0.048323     0.000000  Biso 1.000000     H
    H   1.0     0.567155     0.120332     0.050903  Biso 1.000000     H
    H   1.0     0.918366     0.876016     0.900253  Biso 1.000000     H
    H   1.0     0.062835     0.991239     0.893145  Biso 1.000000     H
    H   1.0     0.171322     0.000000     0.000000  Biso 1.000000     H
    H   1.0     0.012485     0.902205     0.000000  Biso 1.000000     H
    H   1.0     0.420247     0.379166     0.878517  Biso 1.000000     H
    H   1.0     0.408979     0.304605     0.931496  Biso 1.000000     H
    H   1.0     0.180077     0.095783     0.848440  Biso 1.000000     H
    H   1.0     0.204026     0.177130     0.797736  Biso 1.000000     H
    C   1.0     0.247950     0.318734     0.615578  Biso 1.000000     C
    C   1.0     0.322617     0.378787     0.645226  Biso 1.000000     C
    C   1.0     0.298512     0.431086     0.676607  Biso 1.000000     C
    C   1.0     0.199677     0.420932     0.676864  Biso 1.000000     C
    C   1.0     0.129355     0.359335     0.646355  Biso 1.000000     C
    C   1.0     0.374568     0.495936     0.709210  Biso 1.000000     C
    C   1.0     0.808232     0.662125     0.768912  Biso 1.000000     C
    C   1.0     0.708729     0.646070     0.769205  Biso 1.000000     C
    C   1.0     0.641547     0.588674     0.735613  Biso 1.000000     C
    C   1.0     0.677850     0.548971     0.702898  Biso 1.000000     C
    C   1.0     0.778793     0.568340     0.704987  Biso 1.000000     C
    C   1.0     0.534761     0.570697     0.736044  Biso 1.000000     C
    C   1.0     0.260775     0.671648     0.844245  Biso 1.000000     C
    C   1.0     0.287176     0.636882     0.807219  Biso 1.000000     C
    C   1.0     0.382266     0.638144     0.806301  Biso 1.000000     C
    C   1.0     0.447791     0.676143     0.842552  Biso 1.000000     C
    C   1.0     0.415161     0.708080     0.878379  Biso 1.000000     C
    C   1.0     0.413140     0.596446     0.769021  Biso 1.000000     C
    C   1.0     0.408846     0.725851     0.996463  Biso 1.000000     C
    C   1.0     0.498018     0.771382     0.003524  Biso 1.000000     C
    C   1.0     0.570962     0.850303     0.012089  Biso 1.000000     C
    C   1.0     0.551067     0.881087     0.000000  Biso 1.000000     C
    C   1.0     0.466372     0.853419     0.986002  Biso 1.000000     C
    C   1.0     0.658783     0.877063     0.041874  Biso 1.000000     C
    C   1.0     0.040281     0.103233     0.096036  Biso 1.000000     C
    C   1.0     0.965284     0.039307     0.099729  Biso 1.000000     C
    C   1.0     0.890564    -0.001437     0.066562  Biso 1.000000     C
    C   1.0     0.904697     0.023605     0.030740  Biso 1.000000     C
    C   1.0     0.991933     0.088018     0.029394  Biso 1.000000     C
    C   1.0     0.815039     0.965275     0.069102  Biso 1.000000     C
    C   1.0     0.651123     0.696318     0.147832  Biso 1.000000     C
    C   1.0     0.657363     0.737715     0.118794  Biso 1.000000     C
    C   1.0     0.725072     0.818546     0.127393  Biso 1.000000     C
    C   1.0     0.785007     0.854334     0.165149  Biso 1.000000     C
    C   1.0     0.772943     0.809351     0.192998  Biso 1.000000     C
    C   1.0     0.730854     0.863996     0.096941  Biso 1.000000     C
    C   1.0     0.080805     0.327484     0.104944  Biso 1.000000     C
    C   1.0     0.067042     0.388226     0.134421  Biso 1.000000     C
    C   1.0     0.143806     0.440421     0.165674  Biso 1.000000     C
    C   1.0     0.232025     0.429555     0.165948  Biso 1.000000     C
    C   1.0     0.239882     0.367290     0.135615  Biso 1.000000     C
    C   1.0     0.133321     0.505703     0.198230  Biso 1.000000     C
    C   1.0     0.876420     0.672327     0.258533  Biso 1.000000     C
    C   1.0     0.959865     0.656232     0.258745  Biso 1.000000     C
    C   1.0     0.969545     0.598896     0.225090  Biso 1.000000     C
    C   1.0     0.893414     0.559258     0.192418  Biso 1.000000     C
    C   1.0     0.811868     0.578662     0.194594  Biso 1.000000     C
    C   1.0     0.048476     0.580801     0.225358  Biso 1.000000     C
    C   1.0     0.424943     0.680687     0.332342  Biso 1.000000     C
    C   1.0     0.363028     0.646189     0.295523  Biso 1.000000     C
    C   1.0     0.269382     0.647847     0.295040  Biso 1.000000     C
    C   1.0     0.242752     0.685962     0.331510  Biso 1.000000     C
    C   1.0     0.308018     0.717615     0.367112  Biso 1.000000     C
    C   1.0     0.196138     0.606278     0.257975  Biso 1.000000     C
    C   1.0     0.333554     0.735644     0.485175  Biso 1.000000     C
    C   1.0     0.276720     0.759799     0.513664  Biso 1.000000     C
    C   1.0     0.283128     0.838846     0.522266  Biso 1.000000     C
    C   1.0     0.347566     0.891127     0.501941  Biso 1.000000     C
    C   1.0     0.403824     0.863029     0.474561  Biso 1.000000     C
    C   1.0     0.222661     0.866093     0.552209  Biso 1.000000     C
    C   1.0     0.062821     0.095383     0.606822  Biso 1.000000     C
    C   1.0     0.082567     0.030911     0.610492  Biso 1.000000     C
    C   1.0     0.115272    -0.010721     0.577204  Biso 1.000000     C
    C   1.0     0.126115     0.014057     0.541298  Biso 1.000000     C
    C   1.0     0.104453     0.079026     0.539977  Biso 1.000000     C
    C   1.0     0.156050     0.955282     0.579629  Biso 1.000000     C
    C   1.0     0.046931     0.685572     0.658024  Biso 1.000000     C
    C   1.0     0.082572     0.726947     0.629006  Biso 1.000000     C
    C   1.0     0.097506     0.808226     0.637820  Biso 1.000000     C
    C   1.0     0.074569     0.844440     0.675771  Biso 1.000000     C
    C   1.0     0.041052     0.799413     0.703574  Biso 1.000000     C
    C   1.0     0.137719     0.853644     0.607385  Biso 1.000000     C
    C   1.0     0.938259     0.685148     0.916206  Biso 1.000000     C
    C   1.0     0.952019     0.624414     0.886722  Biso 1.000000     C
    C   1.0     0.875253     0.572227     0.855469  Biso 1.000000     C
    C   1.0     0.787038     0.583100     0.855199  Biso 1.000000     C
    C   1.0     0.779183     0.645356     0.885540  Biso 1.000000     C
    C   1.0     0.885734     0.506947     0.822911  Biso 1.000000     C
    C   1.0     0.142630     0.340306     0.762622  Biso 1.000000     C
    C   1.0     0.059184     0.356401     0.762404  Biso 1.000000     C
    C   1.0     0.049496     0.413739     0.796056  Biso 1.000000     C
    C   1.0     0.125625     0.453385     0.828729  Biso 1.000000     C
    C   1.0     0.207172     0.433982     0.826560  Biso 1.000000     C
    C   1.0     0.970571     0.431839     0.795785  Biso 1.000000     C
    C   1.0     0.594148     0.331987     0.688785  Biso 1.000000     C
    C   1.0     0.656062     0.366496     0.725604  Biso 1.000000     C
    C   1.0     0.749707     0.364836     0.726089  Biso 1.000000     C
    C   1.0     0.776352     0.326732     0.689620  Biso 1.000000     C
    C   1.0     0.711085     0.295068     0.654017  Biso 1.000000     C
    C   1.0     0.822933     0.406392     0.763159  Biso 1.000000     C
    C   1.0     0.685545     0.277022     0.535953  Biso 1.000000     C
    C   1.0     0.742392     0.252868     0.507469  Biso 1.000000     C
    C   1.0     0.735992     0.173824     0.498872  Biso 1.000000     C
    C   1.0     0.671551     0.121545     0.519197  Biso 1.000000     C
    C   1.0     0.615281     0.149642     0.546571  Biso 1.000000     C
    C   1.0     0.796480     0.146580     0.468937  Biso 1.000000     C
    C   1.0     0.956290     0.917269     0.414334  Biso 1.000000     C
    C   1.0     0.936559     0.981747     0.410662  Biso 1.000000     C
    C   1.0     0.903849     0.000000     0.443948  Biso 1.000000     C
    C   1.0     0.892995     0.998605     0.479854  Biso 1.000000     C
    C   1.0     0.914645     0.933631     0.481177  Biso 1.000000     C
    C   1.0     0.863093     0.057389     0.441523  Biso 1.000000     C
    C   1.0     0.972210     0.327102     0.363131  Biso 1.000000     C
    C   1.0     0.936586     0.285723     0.392148  Biso 1.000000     C
    C   1.0     0.921647     0.204443     0.383330  Biso 1.000000     C
    C   1.0     0.944579     0.168234     0.345376  Biso 1.000000     C
    C   1.0     0.978080     0.213264     0.317573  Biso 1.000000     C
    C   1.0     0.881441     0.159027     0.413766  Biso 1.000000     C
    C   1.0     0.771153     0.693935     0.405578  Biso 1.000000     C
    C   1.0     0.696487     0.633892     0.375927  Biso 1.000000     C
    C   1.0     0.720585     0.581580     0.344551  Biso 1.000000     C
    C   1.0     0.819415     0.591718     0.344300  Biso 1.000000     C
    C   1.0     0.889736     0.653305     0.374812  Biso 1.000000     C
    C   1.0     0.644529     0.516736     0.311946  Biso 1.000000     C
    C   1.0     0.210863     0.350555     0.252245  Biso 1.000000     C
    C   1.0     0.310365     0.366607     0.251951  Biso 1.000000     C
    C   1.0     0.377551     0.424008     0.285541  Biso 1.000000     C
    C   1.0     0.341254     0.463730     0.318251  Biso 1.000000     C
    C   1.0     0.240311     0.444364     0.316163  Biso 1.000000     C
    C   1.0     0.484336     0.441982     0.285111  Biso 1.000000     C
    C   1.0     0.758309     0.341010     0.176914  Biso 1.000000     C
    C   1.0     0.731912     0.375784     0.213939  Biso 1.000000     C
    C   1.0     0.636822     0.374525     0.214856  Biso 1.000000     C
    C   1.0     0.571302     0.336534     0.178603  Biso 1.000000     C
    C   1.0     0.603930     0.304589     0.142777  Biso 1.000000     C
    C   1.0     0.605954     0.416228     0.252135  Biso 1.000000     C
    C   1.0     0.610232     0.286807     0.024696  Biso 1.000000     C
    C   1.0     0.521062     0.241276     0.000000  Biso 1.000000     C
    C   1.0     0.448118     0.162354     0.000000  Biso 1.000000     C
    C   1.0     0.468011     0.131571     0.008039  Biso 1.000000     C
    C   1.0     0.552705     0.159240     0.035156  Biso 1.000000     C
    C   1.0     0.360296     0.135595     0.979282  Biso 1.000000     C
    C   1.0     0.978811     0.909405     0.925117  Biso 1.000000     C
    C   1.0     0.053803     0.973335     0.921424  Biso 1.000000     C
    C   1.0     0.128521     0.000000     0.954591  Biso 1.000000     C
    C   1.0     0.114391     0.989046     0.990414  Biso 1.000000     C
    C   1.0     0.027161     0.924628     0.991760  Biso 1.000000     C
    C   1.0     0.204043     0.047380     0.952053  Biso 1.000000     C
    C   1.0     0.367951     0.316350     0.873330  Biso 1.000000     C
    C   1.0     0.361711     0.274948     0.902366  Biso 1.000000     C
    C   1.0     0.294004     0.194116     0.893765  Biso 1.000000     C
    C   1.0     0.234067     0.158332     0.856009  Biso 1.000000     C
    C   1.0     0.246131     0.203319     0.828162  Biso 1.000000     C
    C   1.0     0.288223     0.148664     0.924216  Biso 1.000000     C
    N   1.0     0.152616     0.308572     0.616181  Biso 1.000000     N
    N   1.0     0.843435     0.624289     0.737275  Biso 1.000000     N
    N   1.0     0.322893     0.705232     0.879526  Biso 1.000000     N
    N   1.0     0.469970     0.508563     0.706252  Biso 1.000000     N
    N   1.0     0.510495     0.617703     0.767472  Biso 1.000000     N
    N   1.0     0.342224     0.537488     0.740261  Biso 1.000000     N
    N   1.0     0.396574     0.776919     0.977505  Biso 1.000000     N
    N   1.0     0.053692     0.127386     0.061465  Biso 1.000000     N
    N   1.0     0.707103     0.731496     0.184646  Biso 1.000000     N
    N   1.0     0.738955     0.942312     0.040351  Biso 1.000000     N
    N   1.0     0.812978     0.931022     0.099615  Biso 1.000000     N
    N   1.0     0.652307     0.833637     0.068450  Biso 1.000000     N
    N   1.0     0.165485     0.316593     0.105593  Biso 1.000000     N
    N   1.0     0.803305     0.634597     0.226926  Biso 1.000000     N
    N   1.0     0.397273     0.714396     0.367838  Biso 1.000000     N
    N   1.0     0.050711     0.518624     0.195464  Biso 1.000000     N
    N   1.0     0.120036     0.627639     0.256705  Biso 1.000000     N
    N   1.0     0.207614     0.547216     0.229109  Biso 1.000000     N
    N   1.0     0.396600     0.786368     0.465978  Biso 1.000000     N
    N   1.0     0.073452     0.119233     0.572166  Biso 1.000000     N
    N   1.0     0.027317     0.721128     0.695025  Biso 1.000000     N
    N   1.0     0.208456     0.931679     0.550740  Biso 1.000000     N
    N   1.0     0.123505     0.921097     0.610137  Biso 1.000000     N
    N   1.0     0.185524     0.822877     0.578858  Biso 1.000000     N
    N   1.0     0.853577     0.696038     0.915566  Biso 1.000000     N
    N   1.0     0.215737     0.378038     0.794233  Biso 1.000000     N
    N   1.0     0.621820     0.298268     0.653293  Biso 1.000000     N
    N   1.0     0.968336     0.494015     0.825680  Biso 1.000000     N
    N   1.0     0.899027     0.385021     0.764430  Biso 1.000000     N
    N   1.0     0.811457     0.465455     0.792025  Biso 1.000000     N
    N   1.0     0.622496     0.226299     0.555150  Biso 1.000000     N
    N   1.0     0.945646     0.893419     0.448990  Biso 1.000000     N
    N   1.0     0.991808     0.291548     0.326125  Biso 1.000000     N
    N   1.0     0.810656     0.080980     0.470401  Biso 1.000000     N
    N   1.0     0.895629     0.091563     0.411010  Biso 1.000000     N
    N   1.0     0.833611     0.189787     0.442284  Biso 1.000000     N
    N   1.0     0.866480     0.704075     0.404984  Biso 1.000000     N
    N   1.0     0.175666     0.388400     0.283879  Biso 1.000000     N
    N   1.0     0.696191     0.307422     0.141633  Biso 1.000000     N
    N   1.0     0.549127     0.504108     0.314906  Biso 1.000000     N
    N   1.0     0.508598     0.394969     0.253685  Biso 1.000000     N
    N   1.0     0.676871     0.475178     0.280897  Biso 1.000000     N
    N   1.0     0.622504     0.235740     0.043655  Biso 1.000000     N
    N   1.0     0.965403     0.885254     0.959689  Biso 1.000000     N
    N   1.0     0.311970     0.281175     0.836516  Biso 1.000000     N
    N   1.0     0.280129     0.070341     0.980802  Biso 1.000000     N
    N   1.0     0.206103     0.081633     0.921540  Biso 1.000000     N
    N   1.0     0.366773     0.179020     0.952705  Biso 1.000000     N
   Zn   1.0     0.042678     0.218541     0.570305  Biso 1.000000    Zn
   Zn   1.0     0.996698     0.657455     0.740098  Biso 1.000000    Zn
   Zn   1.0     0.269480     0.736514     0.935941  Biso 1.000000    Zn
   Zn   1.0     0.184484     0.226106     0.059694  Biso 1.000000    Zn
   Zn   1.0     0.683405     0.668144     0.229703  Biso 1.000000    Zn
   Zn   1.0     0.482516     0.745280     0.423922  Biso 1.000000    Zn
   Zn   1.0     0.834611     0.786541     0.961468  Biso 1.000000    Zn
   Zn   1.0     0.335675     0.344534     0.791462  Biso 1.000000    Zn
   Zn   1.0     0.536583     0.267386     0.597221  Biso 1.000000    Zn
   Zn   1.0     0.976419     0.794111     0.450859  Biso 1.000000    Zn
   Zn   1.0     0.022404     0.355238     0.281062  Biso 1.000000    Zn
   Zn   1.0     0.749607     0.276145     0.085220  Biso 1.000000    Zn
    I   1.0     0.079004     0.246281     0.500971  Biso 1.000000     I
    I   1.0     0.887562     0.193644     0.602013  Biso 1.000000     I
    I   1.0     0.018882     0.529254     0.710166  Biso 1.000000     I
    I   1.0     0.065262     0.757395     0.810857  Biso 1.000000     I
    I   1.0     0.150608     0.598599     0.944002  Biso 1.000000     I
    I   1.0     0.227033     0.856780     0.938809  Biso 1.000000     I
    I   1.0     0.167375     0.233648     0.000000  Biso 1.000000     I
    I   1.0     0.323790     0.200125     0.091140  Biso 1.000000     I
    I   1.0     0.522544     0.540259     0.200044  Biso 1.000000     I
    I   1.0     0.705724     0.768335     0.300435  Biso 1.000000     I
    I   1.0     0.462656     0.607599     0.432656  Biso 1.000000     I
    I   1.0     0.646052     0.865333     0.427382  Biso 1.000000     I
    I   1.0     0.851733     0.779009     0.009193  Biso 1.000000     I
    I   1.0     0.695303     0.812530     0.930029  Biso 1.000000     I
    I   1.0     0.496506     0.472438     0.821133  Biso 1.000000     I
    I   1.0     0.313397     0.244362     0.720727  Biso 1.000000     I
    I   1.0     0.556440     0.405067     0.588485  Biso 1.000000     I
    I   1.0     0.373047     0.147332     0.593756  Biso 1.000000     I
    I   1.0     0.940106     0.766387     0.520195  Biso 1.000000     I
    I   1.0     0.131528     0.818999     0.419144  Biso 1.000000     I
    I   1.0     0.000000     0.483446     0.311007  Biso 1.000000     I
    I   1.0     0.953830     0.255308     0.210301  Biso 1.000000     I
    I   1.0     0.868467     0.414056     0.077149  Biso 1.000000     I
    I   1.0     0.792056     0.155879     0.082347  Biso 1.000000     I
