#======================================================================

# CRYSTAL DATA

#----------------------------------------------------------------------

data_VESTA_phase_1


_pd_phase_name                         MOF
_cell_length_a                         16.68500
_cell_length_b                         13.02500
_cell_length_c                         13.40800
_cell_angle_alpha                      71.54600
_cell_angle_beta                       80.00900
_cell_angle_gamma                      86.93400
_symmetry_space_group_name_H-M         "P 1"
_symmetry_Int_Tables_number            1

loop_
_symmetry_equiv_pos_as_xyz
   "x, y, z"

loop_
   _atom_site_label
   _atom_site_occupancy
   _atom_site_fract_x
   _atom_site_fract_y
   _atom_site_fract_z
   _atom_site_adp_type
   _atom_site_B_iso_or_equiv
   _atom_site_type_symbol
    H   1.0     0.553948     0.516740     0.218708  Biso 1.000000     H
    H   1.0     0.000000     0.516741     0.218706  Biso 1.000000     H
    H   1.0     0.568697     0.332180     0.197822  Biso 1.000000     H
    H   1.0     0.000000     0.332181     0.197820  Biso 1.000000     H
    H   1.0     0.449130     0.203669     0.524084  Biso 1.000000     H
    H   1.0     0.955635     0.203669     0.524083  Biso 1.000000     H
    H   1.0     0.440554     0.392348     0.532644  Biso 1.000000     H
    H   1.0     0.947057     0.392347     0.532643  Biso 1.000000     H
    H   1.0     0.575464     0.134745     0.294844  Biso 1.000000     H
    H   1.0     0.000000     0.134745     0.294844  Biso 1.000000     H
    H   1.0     0.469492     0.134840     0.300511  Biso 1.000000     H
    H   1.0     0.975999     0.134839     0.300508  Biso 1.000000     H
    H   1.0     0.617597     0.990269     0.388151  Biso 1.000000     H
    H   1.0     0.000000     0.990269     0.388148  Biso 1.000000     H
    H   1.0     0.722798     0.960489     0.369095  Biso 1.000000     H
    H   1.0     0.000000     0.960488     0.369095  Biso 1.000000     H
    H   1.0     0.125350     0.020571     0.445616  Biso 1.000000     H
    H   1.0     0.631849     0.020573     0.445615  Biso 1.000000     H
    H   1.0     0.081506     0.109705     0.517990  Biso 1.000000     H
    H   1.0     0.588006     0.109706     0.517989  Biso 1.000000     H
    H   1.0     0.441003     0.768226     0.497954  Biso 1.000000     H
    H   1.0     0.947505     0.768226     0.497953  Biso 1.000000     H
    H   1.0     0.404908     0.768662     0.686496  Biso 1.000000     H
    H   1.0     0.911410     0.768663     0.686495  Biso 1.000000     H
    H   1.0     0.515216     0.452675     0.782254  Biso 1.000000     H
    H   1.0     0.000000     0.452676     0.782252  Biso 1.000000     H
    H   1.0     0.549782     0.465540     0.592594  Biso 1.000000     H
    H   1.0     0.000000     0.465541     0.592593  Biso 1.000000     H
    H   1.0     0.377390     0.653166     0.876229  Biso 1.000000     H
    H   1.0     0.883893     0.653167     0.876227  Biso 1.000000     H
    H   1.0     0.481850     0.644226     0.887354  Biso 1.000000     H
    H   1.0     0.988353     0.644227     0.887352  Biso 1.000000     H
    H   1.0     0.296222     0.484200     0.951964  Biso 1.000000     H
    H   1.0     0.802724     0.484200     0.951964  Biso 1.000000     H
    H   1.0     0.355238     0.439512     0.849130  Biso 1.000000     H
    H   1.0     0.861741     0.439513     0.849129  Biso 1.000000     H
    H   1.0     0.437498     0.636917     0.029473  Biso 1.000000     H
    H   1.0     0.944001     0.636919     0.029472  Biso 1.000000     H
    H   1.0     0.329127     0.644168     0.048398  Biso 1.000000     H
    H   1.0     0.835629     0.644169     0.048396  Biso 1.000000     H
    H   1.0     0.410573     0.900616     0.144156  Biso 1.000000     H
    H   1.0     0.917073     0.900618     0.144156  Biso 1.000000     H
    H   1.0     0.383617     0.804823     0.086949  Biso 1.000000     H
    H   1.0     0.890117     0.804825     0.086949  Biso 1.000000     H
    H   1.0     0.291629     0.853334     0.286570  Biso 1.000000     H
    H   1.0     0.798129     0.853335     0.286571  Biso 1.000000     H
    H   1.0     0.285163     0.655647     0.309192  Biso 1.000000     H
    H   1.0     0.791664     0.655648     0.309192  Biso 1.000000     H
    H   1.0     0.254390     0.684532     0.183904  Biso 1.000000     H
    H   1.0     0.760891     0.684533     0.183904  Biso 1.000000     H
    H   1.0     0.175804     0.405721     0.809105  Biso 1.000000     H
    H   1.0     0.682306     0.405722     0.809105  Biso 1.000000     H
    H   1.0     0.161053     0.590279     0.829994  Biso 1.000000     H
    H   1.0     0.667554     0.590280     0.829994  Biso 1.000000     H
    H   1.0     0.280611     0.718797     0.503730  Biso 1.000000     H
    H   1.0     0.787112     0.718798     0.503729  Biso 1.000000     H
    H   1.0     0.289190     0.530120     0.495167  Biso 1.000000     H
    H   1.0     0.795691     0.530121     0.495166  Biso 1.000000     H
    H   1.0     0.154282     0.787715     0.732976  Biso 1.000000     H
    H   1.0     0.660785     0.787716     0.732977  Biso 1.000000     H
    H   1.0     0.260254     0.787620     0.727307  Biso 1.000000     H
    H   1.0     0.766758     0.787621     0.727305  Biso 1.000000     H
    H   1.0     0.112145    -0.067806     0.639672  Biso 1.000000     H
    H   1.0     0.618647    -0.067805     0.639671  Biso 1.000000     H
    H   1.0     0.006942    -0.038026     0.658724  Biso 1.000000     H
    H   1.0     0.513444    -0.038026     0.658725  Biso 1.000000     H
    H   1.0     0.604396     0.901891     0.582208  Biso 1.000000     H
    H   1.0     0.000000     0.901892     0.582205  Biso 1.000000     H
    H   1.0     0.648238     0.812758     0.509832  Biso 1.000000     H
    H   1.0     0.000000     0.812758     0.509830  Biso 1.000000     H
    H   1.0     0.288746     0.154231     0.529858  Biso 1.000000     H
    H   1.0     0.795252     0.154233     0.529858  Biso 1.000000     H
    H   1.0     0.324840     0.153795     0.341316  Biso 1.000000     H
    H   1.0     0.831346     0.153798     0.341315  Biso 1.000000     H
    H   1.0     0.214534     0.469784     0.245561  Biso 1.000000     H
    H   1.0     0.721035     0.469783     0.245560  Biso 1.000000     H
    H   1.0     0.179969     0.456918     0.435220  Biso 1.000000     H
    H   1.0     0.686470     0.456917     0.435219  Biso 1.000000     H
    H   1.0     0.352359     0.269293     0.151584  Biso 1.000000     H
    H   1.0     0.858864     0.269295     0.151584  Biso 1.000000     H
    H   1.0     0.247899     0.278234     0.140459  Biso 1.000000     H
    H   1.0     0.754404     0.278234     0.140458  Biso 1.000000     H
    H   1.0     0.433528     0.438259     0.075849  Biso 1.000000     H
    H   1.0     0.940031     0.438261     0.075848  Biso 1.000000     H
    H   1.0     0.374512     0.482946     0.178683  Biso 1.000000     H
    H   1.0     0.881015     0.482949     0.178683  Biso 1.000000     H
    H   1.0     0.292251     0.285543     0.998340  Biso 1.000000     H
    H   1.0     0.798755     0.285543     0.998340  Biso 1.000000     H
    H   1.0     0.400623     0.278292     0.979416  Biso 1.000000     H
    H   1.0     0.907127     0.278293     0.979415  Biso 1.000000     H
    H   1.0     0.319172     0.021857     0.883657  Biso 1.000000     H
    H   1.0     0.825672     0.021859     0.883657  Biso 1.000000     H
    H   1.0     0.346126     0.117652     0.940865  Biso 1.000000     H
    H   1.0     0.852626     0.117653     0.940866  Biso 1.000000     H
    H   1.0     0.438112     0.069131     0.741249  Biso 1.000000     H
    H   1.0     0.944611     0.069132     0.741251  Biso 1.000000     H
    H   1.0     0.444596     0.266817     0.718620  Biso 1.000000     H
    H   1.0     0.951097     0.266817     0.718620  Biso 1.000000     H
    H   1.0     0.475367     0.237931     0.843909  Biso 1.000000     H
    H   1.0     0.981867     0.237932     0.843910  Biso 1.000000     H
    C   1.0     0.532300     0.444716     0.284186  Biso 1.000000     C
    C   1.0     0.000000     0.444717     0.284185  Biso 1.000000     C
    C   1.0     0.539653     0.341920     0.273725  Biso 1.000000     C
    C   1.0     0.000000     0.341921     0.273724  Biso 1.000000     C
    C   1.0     0.510506     0.251760     0.360099  Biso 1.000000     C
    C   1.0     0.000000     0.251760     0.360098  Biso 1.000000     C
    C   1.0     0.473771     0.270684     0.454805  Biso 1.000000     C
    C   1.0     0.980276     0.270683     0.454804  Biso 1.000000     C
    C   1.0     0.468790     0.375984     0.459571  Biso 1.000000     C
    C   1.0     0.975294     0.375984     0.459570  Biso 1.000000     C
    C   1.0     0.516753     0.140659     0.346804  Biso 1.000000     C
    C   1.0     0.000000     0.140659     0.346803  Biso 1.000000     C
    C   1.0     0.672333     0.980165     0.425642  Biso 1.000000     C
    C   1.0     0.000000     0.980165     0.425640  Biso 1.000000     C
    C   1.0     0.070374     0.036125     0.499048  Biso 1.000000     C
    C   1.0     0.576874     0.036126     0.499048  Biso 1.000000     C
    C   1.0     0.457036     0.700696     0.563660  Biso 1.000000     C
    C   1.0     0.963538     0.700696     0.563658  Biso 1.000000     C
    C   1.0     0.437002     0.699630     0.668955  Biso 1.000000     C
    C   1.0     0.943504     0.699630     0.668953  Biso 1.000000     C
    C   1.0     0.456153     0.609345     0.751166  Biso 1.000000     C
    C   1.0     0.962656     0.609346     0.751165  Biso 1.000000     C
    C   1.0     0.498109     0.524593     0.722006  Biso 1.000000     C
    C   1.0     0.000000     0.524594     0.722005  Biso 1.000000     C
    C   1.0     0.516999     0.531568     0.615136  Biso 1.000000     C
    C   1.0     0.000000     0.531568     0.615135  Biso 1.000000     C
    C   1.0     0.433306     0.604131     0.866727  Biso 1.000000     C
    C   1.0     0.939808     0.604132     0.866725  Biso 1.000000     C
    C   1.0     0.352371     0.439999     0.931482  Biso 1.000000     C
    C   1.0     0.858874     0.439999     0.931481  Biso 1.000000     C
    C   1.0     0.382549     0.598544     0.022366  Biso 1.000000     C
    C   1.0     0.889052     0.598546     0.022365  Biso 1.000000     C
    C   1.0     0.435638     0.737581     0.228238  Biso 1.000000     C
    C   1.0     0.942138     0.737582     0.228237  Biso 1.000000     C
    C   1.0     0.381869     0.820988     0.162802  Biso 1.000000     C
    C   1.0     0.888369     0.820989     0.162802  Biso 1.000000     C
    C   1.0     0.292701     0.825059     0.217440  Biso 1.000000     C
    C   1.0     0.799202     0.825059     0.217441  Biso 1.000000     C
    C   1.0     0.251522     0.714327     0.252588  Biso 1.000000     C
    C   1.0     0.758023     0.714327     0.252590  Biso 1.000000     C
    C   1.0     0.162394     0.712636     0.303973  Biso 1.000000     C
    C   1.0     0.668895     0.712635     0.303975  Biso 1.000000     C
    C   1.0     0.249495     0.908848     0.137972  Biso 1.000000     C
    C   1.0     0.755993     0.908847     0.137975  Biso 1.000000     C
    C   1.0     0.197449     0.477746     0.743627  Biso 1.000000     C
    C   1.0     0.703950     0.477746     0.743626  Biso 1.000000     C
    C   1.0     0.190095     0.580541     0.754090  Biso 1.000000     C
    C   1.0     0.696596     0.580542     0.754089  Biso 1.000000     C
    C   1.0     0.219239     0.670702     0.667716  Biso 1.000000     C
    C   1.0     0.725742     0.670703     0.667716  Biso 1.000000     C
    C   1.0     0.255972     0.651781     0.573009  Biso 1.000000     C
    C   1.0     0.762473     0.651782     0.573008  Biso 1.000000     C
    C   1.0     0.260955     0.546481     0.568241  Biso 1.000000     C
    C   1.0     0.767456     0.546482     0.568241  Biso 1.000000     C
    C   1.0     0.212992     0.781802     0.681015  Biso 1.000000     C
    C   1.0     0.719495     0.781803     0.681015  Biso 1.000000     C
    C   1.0     0.057409    -0.057702     0.602180  Biso 1.000000     C
    C   1.0     0.563911    -0.057701     0.602179  Biso 1.000000     C
    C   1.0     0.659370     0.886338     0.528774  Biso 1.000000     C
    C   1.0     0.000000     0.886339     0.528772  Biso 1.000000     C
    C   1.0     0.272714     0.221762     0.464153  Biso 1.000000     C
    C   1.0     0.779218     0.221764     0.464152  Biso 1.000000     C
    C   1.0     0.292746     0.222828     0.358858  Biso 1.000000     C
    C   1.0     0.799251     0.222830     0.358857  Biso 1.000000     C
    C   1.0     0.273595     0.313113     0.276647  Biso 1.000000     C
    C   1.0     0.780099     0.313114     0.276647  Biso 1.000000     C
    C   1.0     0.231641     0.397865     0.305808  Biso 1.000000     C
    C   1.0     0.738143     0.397865     0.305807  Biso 1.000000     C
    C   1.0     0.212752     0.390890     0.412678  Biso 1.000000     C
    C   1.0     0.719254     0.390890     0.412677  Biso 1.000000     C
    C   1.0     0.296443     0.318328     0.161086  Biso 1.000000     C
    C   1.0     0.802948     0.318329     0.161086  Biso 1.000000     C
    C   1.0     0.377379     0.482460     0.096332  Biso 1.000000     C
    C   1.0     0.883882     0.482462     0.096331  Biso 1.000000     C
    C   1.0     0.347200     0.323916     0.000000  Biso 1.000000     C
    C   1.0     0.853704     0.323916     0.000000  Biso 1.000000     C
    C   1.0     0.294114     0.184892     0.799569  Biso 1.000000     C
    C   1.0     0.800615     0.184894     0.799569  Biso 1.000000     C
    C   1.0     0.347875     0.101486     0.865012  Biso 1.000000     C
    C   1.0     0.854375     0.101487     0.865013  Biso 1.000000     C
    C   1.0     0.437042     0.097410     0.810376  Biso 1.000000     C
    C   1.0     0.943542     0.097411     0.810378  Biso 1.000000     C
    C   1.0     0.478232     0.208133     0.775227  Biso 1.000000     C
    C   1.0     0.984732     0.208134     0.775228  Biso 1.000000     C
    C   1.0     0.567359     0.209813     0.723844  Biso 1.000000     C
    C   1.0     0.000000     0.209813     0.723845  Biso 1.000000     C
    C   1.0     0.480223     0.013604     0.889856  Biso 1.000000     C
    C   1.0     0.986722     0.013603     0.889858  Biso 1.000000     C
    N   1.0     0.497867     0.462534     0.376335  Biso 1.000000     N
    N   1.0     0.000000     0.462534     0.376333  Biso 1.000000     N
    N   1.0     0.505115     0.051200     0.445870  Biso 1.000000     N
    N   1.0     0.000000     0.051199     0.445869  Biso 1.000000     N
    N   1.0     0.495707     0.617189     0.536481  Biso 1.000000     N
    N   1.0     0.000000     0.617189     0.536480  Biso 1.000000     N
    N   1.0     0.424985     0.493889     0.939528  Biso 1.000000     N
    N   1.0     0.931488     0.493890     0.939526  Biso 1.000000     N
    N   1.0     0.231881     0.459929     0.651477  Biso 1.000000     N
    N   1.0     0.738382     0.459930     0.651476  Biso 1.000000     N
    N   1.0     0.224629     0.871264     0.581950  Biso 1.000000     N
    N   1.0     0.731130     0.871265     0.581950  Biso 1.000000     N
    N   1.0     0.234045     0.305270     0.491332  Biso 1.000000     N
    N   1.0     0.740547     0.305270     0.491331  Biso 1.000000     N
    N   1.0     0.304764     0.428570     0.088286  Biso 1.000000     N
    N   1.0     0.811268     0.428571     0.088285  Biso 1.000000     N
    O   1.0     0.487345     0.686557     0.183104  Biso 1.000000     O
    O   1.0     0.993846     0.686560     0.183103  Biso 1.000000     O
    O   1.0     0.426150     0.724796     0.329877  Biso 1.000000     O
    O   1.0     0.932652     0.724797     0.329877  Biso 1.000000     O
    O   1.0     0.128131     0.617582     0.331063  Biso 1.000000     O
    O   1.0     0.634633     0.617581     0.331065  Biso 1.000000     O
    O   1.0     0.127283     0.795039     0.317177  Biso 1.000000     O
    O   1.0     0.633784     0.795038     0.317178  Biso 1.000000     O
    O   1.0     0.224165     0.881110     0.063895  Biso 1.000000     O
    O   1.0     0.730668     0.881110     0.063893  Biso 1.000000     O
    O   1.0     0.058246    -0.023146     0.137538  Biso 1.000000     O
    O   1.0     0.564737    -0.023148     0.137544  Biso 1.000000     O
    O   1.0     0.242409     0.235931     0.844690  Biso 1.000000     O
    O   1.0     0.748910     0.235934     0.844689  Biso 1.000000     O
    O   1.0     0.303603     0.197662     0.697934  Biso 1.000000     O
    O   1.0     0.810105     0.197662     0.697934  Biso 1.000000     O
    O   1.0     0.601623     0.304869     0.696737  Biso 1.000000     O
    O   1.0     0.000000     0.304868     0.696740  Biso 1.000000     O
    O   1.0     0.602469     0.127402     0.710659  Biso 1.000000     O
    O   1.0     0.000000     0.127402     0.710658  Biso 1.000000     O
    O   1.0     0.505620     0.041346     0.963887  Biso 1.000000     O
    O   1.0     0.000000     0.041345     0.963886  Biso 1.000000     O
    O   1.0     0.671371     0.945574     0.890350  Biso 1.000000     O
    O   1.0     0.000000     0.945572     0.890356  Biso 1.000000     O
   Zn   1.0     0.515948     0.621713     0.377475  Biso 1.000000    Zn
   Zn   1.0     0.000000     0.621714     0.377474  Biso 1.000000    Zn
   Zn   1.0     0.213806     0.300745     0.650339  Biso 1.000000    Zn
   Zn   1.0     0.720308     0.300746     0.650338  Biso 1.000000    Zn
   Zn   1.0    -0.000016    -0.000008    -0.000005  Biso 1.000000    Zn
   Zn   1.0     0.506486    -0.000008    -0.000005  Biso 1.000000    Zn
