#======================================================================

# CRYSTAL DATA

#----------------------------------------------------------------------

data_VESTA_phase_1


_pd_phase_name                         MOF
_cell_length_a                         13.96700
_cell_length_b                         13.80900
_cell_length_c                         14.88000
_cell_angle_alpha                      91.67300
_cell_angle_beta                       89.90400
_cell_angle_gamma                      89.94600
_symmetry_space_group_name_H-M         "P 1"
_symmetry_Int_Tables_number            1

loop_
_symmetry_equiv_pos_as_xyz
   "x, y, z"

loop_
   _atom_site_label
   _atom_site_occupancy
   _atom_site_fract_x
   _atom_site_fract_y
   _atom_site_fract_z
   _atom_site_adp_type
   _atom_site_B_iso_or_equiv
   _atom_site_type_symbol
    H   1.0     0.714157     0.701273     0.904581  Biso 1.000000     H
    H   1.0     0.707329     0.923838     0.706566  Biso 1.000000     H
    H   1.0     0.459575     0.745582     0.747909  Biso 1.000000     H
    H   1.0     0.692109     0.957375     0.929573  Biso 1.000000     H
    H   1.0     0.778369     0.000000     0.922082  Biso 1.000000     H
    H   1.0     0.777757    -0.020531     0.017808  Biso 1.000000     H
    H   1.0     0.777499     0.715943     0.683525  Biso 1.000000     H
    H   1.0     0.826570     0.597778     0.563934  Biso 1.000000     H
    H   1.0     0.107162     0.595305     0.652333  Biso 1.000000     H
    H   1.0     0.071396     0.718299     0.775337  Biso 1.000000     H
    H   1.0     0.214727     0.299377     0.595834  Biso 1.000000     H
    H   1.0     0.207191     0.076467     0.793482  Biso 1.000000     H
    H   1.0     0.959309     0.254539     0.751920  Biso 1.000000     H
    H   1.0     0.192580     0.042136     0.572403  Biso 1.000000     H
    H   1.0     0.279844    -0.052967     0.577782  Biso 1.000000     H
    H   1.0     0.277287     0.000000     0.482766  Biso 1.000000     H
    H   1.0     0.277671     0.284186     0.817079  Biso 1.000000     H
    H   1.0     0.326601     0.402376     0.936509  Biso 1.000000     H
    H   1.0     0.607316     0.404269     0.847492  Biso 1.000000     H
    H   1.0     0.571703     0.281237     0.724642  Biso 1.000000     H
    H   1.0     0.285868     0.298767     0.095452  Biso 1.000000     H
    H   1.0     0.292701     0.076194     0.293458  Biso 1.000000     H
    H   1.0     0.540455     0.254449     0.252115  Biso 1.000000     H
    H   1.0     0.307925     0.042683     0.070435  Biso 1.000000     H
    H   1.0     0.221689    -0.052972     0.077962  Biso 1.000000     H
    H   1.0     0.222262     0.000000     0.982219  Biso 1.000000     H
    H   1.0     0.222525     0.284083     0.316502  Biso 1.000000     H
    H   1.0     0.173455     0.402247     0.436093  Biso 1.000000     H
    H   1.0     0.892865     0.404730     0.347687  Biso 1.000000     H
    H   1.0     0.928630     0.281736     0.224683  Biso 1.000000     H
    H   1.0     0.785307     0.700648     0.404191  Biso 1.000000     H
    H   1.0     0.792829     0.923539     0.206523  Biso 1.000000     H
    H   1.0     0.040722     0.745488     0.248103  Biso 1.000000     H
    H   1.0     0.807463     0.957786     0.427692  Biso 1.000000     H
    H   1.0     0.720267     0.000000     0.422233  Biso 1.000000     H
    H   1.0     0.722707    -0.021619     0.517274  Biso 1.000000     H
    H   1.0     0.722414     0.715552     0.183129  Biso 1.000000     H
    H   1.0     0.673477     0.597371     0.063698  Biso 1.000000     H
    H   1.0     0.392591     0.596094     0.152274  Biso 1.000000     H
    H   1.0     0.428217     0.719148     0.275098  Biso 1.000000     H
    C   1.0     0.531093     0.637751     0.883669  Biso 1.000000     C
    C   1.0     0.581499     0.714939     0.831736  Biso 1.000000     C
    C   1.0     0.675937     0.740223     0.853135  Biso 1.000000     C
    C   1.0     0.719661     0.815911     0.808660  Biso 1.000000     C
    C   1.0     0.672488     0.865185     0.741350  Biso 1.000000     C
    C   1.0     0.578837     0.838072     0.718079  Biso 1.000000     C
    C   1.0     0.533285     0.764391     0.764564  Biso 1.000000     C
    C   1.0     0.527066     0.887330     0.642774  Biso 1.000000     C
    C   1.0     0.765844     0.979007     0.944935  Biso 1.000000     C
    C   1.0     0.835536     0.912948     0.900127  Biso 1.000000     C
    C   1.0     0.902842     0.802840     0.809913  Biso 1.000000     C
    C   1.0     0.921268     0.728642     0.740073  Biso 1.000000     C
    C   1.0     0.851657     0.692479     0.679906  Biso 1.000000     C
    C   1.0     0.878185     0.625811     0.612809  Biso 1.000000     C
    C   1.0     0.035620     0.625425     0.661680  Biso 1.000000     C
    C   1.0     0.015182     0.692659     0.730027  Biso 1.000000     C
    C   1.0     0.031061     0.362381     0.616313  Biso 1.000000     C
    C   1.0     0.081617     0.285487     0.668368  Biso 1.000000     C
    C   1.0     0.176293     0.260366     0.647168  Biso 1.000000     C
    C   1.0     0.219940     0.184650     0.691653  Biso 1.000000     C
    C   1.0     0.172475     0.135198     0.758718  Biso 1.000000     C
    C   1.0     0.078611     0.162126     0.781802  Biso 1.000000     C
    C   1.0     0.033141     0.235846     0.735373  Biso 1.000000     C
    C   1.0     0.026801     0.112623     0.857057  Biso 1.000000     C
    C   1.0     0.266302     0.021200     0.555798  Biso 1.000000     C
    C   1.0     0.335935     0.087217     0.600317  Biso 1.000000     C
    C   1.0     0.403187     0.197182     0.690366  Biso 1.000000     C
    C   1.0     0.421510     0.271304     0.760191  Biso 1.000000     C
    C   1.0     0.351813     0.307566     0.820511  Biso 1.000000     C
    C   1.0     0.378265     0.374231     0.887515  Biso 1.000000     C
    C   1.0     0.535778     0.374305     0.838312  Biso 1.000000     C
    C   1.0     0.515439     0.307065     0.770044  Biso 1.000000     C
    C   1.0     0.468935     0.362289     0.116355  Biso 1.000000     C
    C   1.0     0.418529     0.285101     0.168292  Biso 1.000000     C
    C   1.0     0.324090     0.259816     0.146896  Biso 1.000000     C
    C   1.0     0.280368     0.184124     0.191367  Biso 1.000000     C
    C   1.0     0.327540     0.134849     0.258674  Biso 1.000000     C
    C   1.0     0.421192     0.161961     0.281943  Biso 1.000000     C
    C   1.0     0.466744     0.235644     0.235460  Biso 1.000000     C
    C   1.0     0.472960     0.112698     0.357245  Biso 1.000000     C
    C   1.0     0.234191     0.021031     0.055090  Biso 1.000000     C
    C   1.0     0.164495     0.087084     0.099899  Biso 1.000000     C
    C   1.0     0.097185     0.197193     0.190108  Biso 1.000000     C
    C   1.0     0.078758     0.271389     0.259950  Biso 1.000000     C
    C   1.0     0.148368     0.307548     0.320120  Biso 1.000000     C
    C   1.0     0.121840     0.374218     0.387215  Biso 1.000000     C
    C   1.0     0.964406     0.374609     0.338341  Biso 1.000000     C
    C   1.0     0.984844     0.307373     0.269996  Biso 1.000000     C
    C   1.0     0.968968     0.637640     0.383714  Biso 1.000000     C
    C   1.0     0.918413     0.714533     0.331653  Biso 1.000000     C
    C   1.0     0.823737     0.739655     0.352851  Biso 1.000000     C
    C   1.0     0.780085     0.815364     0.308359  Biso 1.000000     C
    C   1.0     0.827547     0.864812     0.241290  Biso 1.000000     C
    C   1.0     0.921414     0.837890     0.218213  Biso 1.000000     C
    C   1.0     0.966887     0.764173     0.264646  Biso 1.000000     C
    C   1.0     0.973225     0.887400     0.142963  Biso 1.000000     C
    C   1.0     0.733742     0.978774     0.444248  Biso 1.000000     C
    C   1.0     0.664098     0.912784     0.399711  Biso 1.000000     C
    C   1.0     0.596832     0.802869     0.309617  Biso 1.000000     C
    C   1.0     0.578496     0.728758     0.239783  Biso 1.000000     C
    C   1.0     0.648232     0.692320     0.179592  Biso 1.000000     C
    C   1.0     0.621774     0.625655     0.112589  Biso 1.000000     C
    C   1.0     0.464172     0.625919     0.161548  Biso 1.000000     C
    C   1.0     0.484515     0.693174     0.229803  Biso 1.000000     C
    N   1.0     0.815273     0.843917     0.834810  Biso 1.000000     N
    N   1.0     0.929786     0.912261     0.913554  Biso 1.000000     N
    N   1.0     0.972155     0.844927     0.857885  Biso 1.000000     N
    N   1.0     0.968510     0.593086     0.602957  Biso 1.000000     N
    N   1.0     0.315642     0.156402     0.665562  Biso 1.000000     N
    N   1.0     0.430209     0.087656     0.586754  Biso 1.000000     N
    N   1.0     0.472570     0.154842     0.642342  Biso 1.000000     N
    N   1.0     0.468565     0.406835     0.897150  Biso 1.000000     N
    N   1.0     0.184756     0.156117     0.165215  Biso 1.000000     N
    N   1.0     0.070244     0.087766     0.086472  Biso 1.000000     N
    N   1.0     0.027873     0.155102     0.142139  Biso 1.000000     N
    N   1.0     0.031517     0.406949     0.397062  Biso 1.000000     N
    N   1.0     0.684384     0.843613     0.334452  Biso 1.000000     N
    N   1.0     0.569821     0.912367     0.413261  Biso 1.000000     N
    N   1.0     0.527452     0.845217     0.357642  Biso 1.000000     N
    N   1.0     0.531431     0.593214     0.102838  Biso 1.000000     N
    O   1.0     0.587759     0.575677     0.921364  Biso 1.000000     O
    O   1.0     0.442277     0.637719     0.890177  Biso 1.000000     O
    O   1.0     0.579216     0.949276     0.600201  Biso 1.000000     O
    O   1.0     0.442261     0.866826     0.625045  Biso 1.000000     O
    O   1.0     0.087610     0.424469     0.578333  Biso 1.000000     O
    O   1.0     0.942316     0.362347     0.609810  Biso 1.000000     O
    O   1.0     0.079036     0.050554     0.899261  Biso 1.000000     O
    O   1.0     0.941978     0.133195     0.874977  Biso 1.000000     O
    O   1.0     0.412264     0.424357     0.078661  Biso 1.000000     O
    O   1.0     0.557751     0.362315     0.109847  Biso 1.000000     O
    O   1.0     0.420808     0.050755     0.399821  Biso 1.000000     O
    O   1.0     0.557766     0.133195     0.374978  Biso 1.000000     O
    O   1.0     0.912411     0.575559     0.421688  Biso 1.000000     O
    O   1.0     0.057713     0.637672     0.390210  Biso 1.000000     O
    O   1.0     0.920989     0.949468     0.100759  Biso 1.000000     O
    O   1.0     0.058047     0.866827     0.125041  Biso 1.000000     O
   Cu   1.0    -0.000004     0.500011     0.500012  Biso 1.000000    Cu
   Cu   1.0     0.500008     0.500013    -0.000007  Biso 1.000000    Cu
   Cu   1.0     0.000004     0.000002     0.000002  Biso 1.000000    Cu
   Cu   1.0     0.500018     0.000001     0.500005  Biso 1.000000    Cu
