#======================================================================

# CRYSTAL DATA

#----------------------------------------------------------------------

data_VESTA_phase_1


_pd_phase_name                         MOF
_cell_length_a                         24.16500
_cell_length_b                         15.38100
_cell_length_c                         17.04300
_cell_angle_alpha                      89.90800
_cell_angle_beta                       90.00600
_cell_angle_gamma                      91.72900
_symmetry_space_group_name_H-M         "P 1"
_symmetry_Int_Tables_number            1

loop_
_symmetry_equiv_pos_as_xyz
   "x, y, z"

loop_
   _atom_site_label
   _atom_site_occupancy
   _atom_site_fract_x
   _atom_site_fract_y
   _atom_site_fract_z
   _atom_site_adp_type
   _atom_site_B_iso_or_equiv
   _atom_site_type_symbol
    H   1.0     0.336770     0.400985     0.820483  Biso 1.000000     H
    H   1.0     0.836812     0.400952     0.820475  Biso 1.000000     H
    H   1.0     0.296525     0.433545     0.950184  Biso 1.000000     H
    H   1.0     0.796555     0.433548     0.950159  Biso 1.000000     H
    H   1.0     0.286430     0.543207     0.921470  Biso 1.000000     H
    H   1.0     0.786450     0.543197     0.921414  Biso 1.000000     H
    H   1.0     0.462102     0.159488     0.692512  Biso 1.000000     H
    H   1.0     0.962079     0.159502     0.692507  Biso 1.000000     H
    H   1.0     0.458046     0.356561     0.716858  Biso 1.000000     H
    H   1.0     0.957884     0.356553     0.716875  Biso 1.000000     H
    H   1.0     0.485663     0.281062     0.783995  Biso 1.000000     H
    H   1.0     0.985543     0.281084     0.784010  Biso 1.000000     H
    H   1.0     0.057903     0.242075     0.690060  Biso 1.000000     H
    H   1.0     0.557934     0.241806     0.689970  Biso 1.000000     H
    H   1.0     0.010736     0.382472     0.582413  Biso 1.000000     H
    H   1.0     0.510880     0.382355     0.582385  Biso 1.000000     H
    H   1.0     0.069522     0.321201     0.562398  Biso 1.000000     H
    H   1.0     0.569604     0.320972     0.562325  Biso 1.000000     H
    H   1.0     0.313415     0.589785     0.776778  Biso 1.000000     H
    H   1.0     0.813439     0.589732     0.776710  Biso 1.000000     H
    H   1.0     0.340241     0.510604     0.713651  Biso 1.000000     H
    H   1.0     0.840299     0.510545     0.713622  Biso 1.000000     H
    H   1.0     0.425116     0.501580     0.796058  Biso 1.000000     H
    H   1.0     0.925167     0.501626     0.796053  Biso 1.000000     H
    H   1.0     0.374634     0.644041     0.897037  Biso 1.000000     H
    H   1.0     0.874617     0.644058     0.896995  Biso 1.000000     H
    H   1.0     0.440977     0.599664     0.908501  Biso 1.000000     H
    H   1.0     0.940974     0.599738     0.908484  Biso 1.000000     H
    H   1.0     0.397618     0.454498     0.939918  Biso 1.000000     H
    H   1.0     0.897650     0.454534     0.939874  Biso 1.000000     H
    H   1.0     0.410554     0.184933     0.568729  Biso 1.000000     H
    H   1.0     0.910561     0.184895     0.568687  Biso 1.000000     H
    H   1.0     0.412526     0.298336     0.586067  Biso 1.000000     H
    H   1.0     0.912469     0.298299     0.586038  Biso 1.000000     H
    H   1.0     0.013441     0.184948     0.559950  Biso 1.000000     H
    H   1.0     0.513418     0.184830     0.559890  Biso 1.000000     H
    H   1.0     0.413043     0.098554     0.319462  Biso 1.000000     H
    H   1.0     0.913048     0.098539     0.319444  Biso 1.000000     H
    H   1.0     0.453152     0.066840     0.449493  Biso 1.000000     H
    H   1.0     0.953137     0.066838     0.449486  Biso 1.000000     H
    H   1.0     0.463654     0.957143     0.421532  Biso 1.000000     H
    H   1.0     0.963654     0.957143     0.421534  Biso 1.000000     H
    H   1.0     0.287953     0.340589     0.192100  Biso 1.000000     H
    H   1.0     0.787963     0.340537     0.192119  Biso 1.000000     H
    H   1.0     0.292473     0.143621     0.217381  Biso 1.000000     H
    H   1.0     0.792452     0.143558     0.217341  Biso 1.000000     H
    H   1.0     0.264678     0.219115     0.284155  Biso 1.000000     H
    H   1.0     0.764675     0.219045     0.284137  Biso 1.000000     H
    H   1.0     0.192214     0.257531     0.189963  Biso 1.000000     H
    H   1.0     0.692211     0.257520     0.189960  Biso 1.000000     H
    H   1.0     0.239715     0.117088     0.083064  Biso 1.000000     H
    H   1.0     0.739692     0.117076     0.083042  Biso 1.000000     H
    H   1.0     0.180744     0.177910     0.062729  Biso 1.000000     H
    H   1.0     0.680725     0.177909     0.062716  Biso 1.000000     H
    H   1.0     0.436877     0.909712     0.276997  Biso 1.000000     H
    H   1.0     0.936882     0.909694     0.277003  Biso 1.000000     H
    H   1.0     0.409818    -0.011602     0.213367  Biso 1.000000     H
    H   1.0     0.909846    -0.011623     0.213351  Biso 1.000000     H
    H   1.0     0.324879    -0.002859     0.295732  Biso 1.000000     H
    H   1.0     0.824895    -0.002834     0.295709  Biso 1.000000     H
    H   1.0     0.375851     0.855509     0.397534  Biso 1.000000     H
    H   1.0     0.875853     0.855496     0.397487  Biso 1.000000     H
    H   1.0     0.309323     0.899252     0.408664  Biso 1.000000     H
    H   1.0     0.809323     0.899231     0.408621  Biso 1.000000     H
    H   1.0     0.352143     0.044987     0.439133  Biso 1.000000     H
    H   1.0     0.852133     0.044966     0.439108  Biso 1.000000     H
    H   1.0     0.339434     0.315130     0.068377  Biso 1.000000     H
    H   1.0     0.839414     0.315119     0.068377  Biso 1.000000     H
    H   1.0     0.337726     0.201756     0.086231  Biso 1.000000     H
    H   1.0     0.837714     0.201741     0.086191  Biso 1.000000     H
    H   1.0     0.236484     0.314542     0.059793  Biso 1.000000     H
    H   1.0     0.736470     0.314533     0.059790  Biso 1.000000     H
    H   1.0     0.163195     0.599056     0.179532  Biso 1.000000     H
    H   1.0     0.663241     0.599024     0.179522  Biso 1.000000     H
    H   1.0     0.203446     0.566461     0.049845  Biso 1.000000     H
    H   1.0     0.703477     0.566465     0.049818  Biso 1.000000     H
    H   1.0     0.213547     0.456809     0.078584  Biso 1.000000     H
    H   1.0     0.713569     0.456800     0.078524  Biso 1.000000     H
    H   1.0     0.037927     0.840513     0.307497  Biso 1.000000     H
    H   1.0     0.537895     0.840512     0.307486  Biso 1.000000     H
    H   1.0     0.042144     0.643466     0.283125  Biso 1.000000     H
    H   1.0     0.541972     0.643442     0.283144  Biso 1.000000     H
    H   1.0     0.014478     0.718933     0.215992  Biso 1.000000     H
    H   1.0     0.514346     0.718934     0.216009  Biso 1.000000     H
    H   1.0     0.442063     0.758153     0.310024  Biso 1.000000     H
    H   1.0     0.942096     0.757890     0.309916  Biso 1.000000     H
    H   1.0     0.489135     0.617633     0.417622  Biso 1.000000     H
    H   1.0     0.989278     0.617527     0.417588  Biso 1.000000     H
    H   1.0     0.430401     0.678999     0.437673  Biso 1.000000     H
    H   1.0     0.930485     0.678788     0.437587  Biso 1.000000     H
    H   1.0     0.186559     0.410271     0.223290  Biso 1.000000     H
    H   1.0     0.686583     0.410219     0.223224  Biso 1.000000     H
    H   1.0     0.159704     0.489460     0.286381  Biso 1.000000     H
    H   1.0     0.659762     0.489406     0.286350  Biso 1.000000     H
    H   1.0     0.074834     0.498388     0.203959  Biso 1.000000     H
    H   1.0     0.574885     0.498437     0.203953  Biso 1.000000     H
    H   1.0     0.125373     0.355956     0.103005  Biso 1.000000     H
    H   1.0     0.625355     0.355976     0.102962  Biso 1.000000     H
    H   1.0     0.059019     0.400289     0.091522  Biso 1.000000     H
    H   1.0     0.559015     0.400368     0.091505  Biso 1.000000     H
    H   1.0     0.102351     0.545484     0.060124  Biso 1.000000     H
    H   1.0     0.602384     0.545522     0.060078  Biso 1.000000     H
    H   1.0     0.089434     0.815129     0.431326  Biso 1.000000     H
    H   1.0     0.589434     0.815089     0.431278  Biso 1.000000     H
    H   1.0     0.087538     0.701725     0.413976  Biso 1.000000     H
    H   1.0     0.587479     0.701685     0.413945  Biso 1.000000     H
    H   1.0     0.486570     0.815156     0.440112  Biso 1.000000     H
    H   1.0     0.986552     0.815050     0.440053  Biso 1.000000     H
    H   1.0     0.086955     0.901473     0.680565  Biso 1.000000     H
    H   1.0     0.586959     0.901459     0.680550  Biso 1.000000     H
    H   1.0     0.046860     0.933172     0.550523  Biso 1.000000     H
    H   1.0     0.546844     0.933174     0.550518  Biso 1.000000     H
    H   1.0     0.036342     0.042866     0.578477  Biso 1.000000     H
    H   1.0     0.536342     0.042868     0.578484  Biso 1.000000     H
    H   1.0     0.212037     0.659464     0.807896  Biso 1.000000     H
    H   1.0     0.712047     0.659412     0.807913  Biso 1.000000     H
    H   1.0     0.207540     0.856441     0.782671  Biso 1.000000     H
    H   1.0     0.707516     0.856380     0.782632  Biso 1.000000     H
    H   1.0     0.235316     0.780959     0.715872  Biso 1.000000     H
    H   1.0     0.735312     0.780891     0.715852  Biso 1.000000     H
    H   1.0     0.307780     0.742483     0.810054  Biso 1.000000     H
    H   1.0     0.807776     0.742471     0.810048  Biso 1.000000     H
    H   1.0     0.260297     0.882931     0.916961  Biso 1.000000     H
    H   1.0     0.760273     0.882920     0.916938  Biso 1.000000     H
    H   1.0     0.319267     0.822107     0.937292  Biso 1.000000     H
    H   1.0     0.819247     0.822106     0.937278  Biso 1.000000     H
    H   1.0     0.063111     0.090316     0.723003  Biso 1.000000     H
    H   1.0     0.563115     0.090299     0.723013  Biso 1.000000     H
    H   1.0     0.090149     0.000000     0.786659  Biso 1.000000     H
    H   1.0     0.590175     0.000000     0.786647  Biso 1.000000     H
    H   1.0     0.175100     0.000000     0.704300  Biso 1.000000     H
    H   1.0     0.675114     0.000000     0.704280  Biso 1.000000     H
    H   1.0     0.124140     0.144516     0.602522  Biso 1.000000     H
    H   1.0     0.624140     0.144506     0.602483  Biso 1.000000     H
    H   1.0     0.190672     0.100785     0.591387  Biso 1.000000     H
    H   1.0     0.690670     0.100769     0.591350  Biso 1.000000     H
    H   1.0     0.147864     0.955047     0.560906  Biso 1.000000     H
    H   1.0     0.647855     0.955029     0.560885  Biso 1.000000     H
    H   1.0     0.160581     0.684882     0.931636  Biso 1.000000     H
    H   1.0     0.660562     0.684869     0.931633  Biso 1.000000     H
    H   1.0     0.162279     0.798261     0.913817  Biso 1.000000     H
    H   1.0     0.662265     0.798243     0.913775  Biso 1.000000     H
    H   1.0     0.263527     0.685476     0.940216  Biso 1.000000     H
    H   1.0     0.763513     0.685468     0.940214  Biso 1.000000     H
    C   1.0     0.253269     0.439951     0.803957  Biso 1.000000     C
    C   1.0     0.753312     0.439939     0.803945  Biso 1.000000     C
    C   1.0     0.313129     0.460445     0.826688  Biso 1.000000     C
    C   1.0     0.813172     0.460415     0.826661  Biso 1.000000     C
    C   1.0     0.313367     0.487319     0.913960  Biso 1.000000     C
    C   1.0     0.813395     0.487315     0.913925  Biso 1.000000     C
    C   1.0     0.386438     0.218621     0.723860  Biso 1.000000     C
    C   1.0     0.886390     0.218577     0.723834  Biso 1.000000     C
    C   1.0     0.442589     0.222575     0.683858  Biso 1.000000     C
    C   1.0     0.942540     0.222565     0.683841  Biso 1.000000     C
    C   1.0     0.479392     0.294484     0.721344  Biso 1.000000     C
    C   1.0     0.979279     0.294521     0.721358  Biso 1.000000     C
    C   1.0     0.035886     0.302977     0.679843  Biso 1.000000     C
    C   1.0     0.536000     0.302798     0.679794  Biso 1.000000     C
    C   1.0     0.029095     0.318596     0.591714  Biso 1.000000     C
    C   1.0     0.529191     0.318439     0.591674  Biso 1.000000     C
    C   1.0     0.339317     0.532342     0.775064  Biso 1.000000     C
    C   1.0     0.839358     0.532306     0.775027  Biso 1.000000     C
    C   1.0     0.397910     0.557396     0.802649  Biso 1.000000     C
    C   1.0     0.897938     0.557416     0.802628  Biso 1.000000     C
    C   1.0     0.424347     0.631930     0.754756  Biso 1.000000     C
    C   1.0     0.924356     0.631971     0.754745  Biso 1.000000     C
    C   1.0     0.398241     0.584450     0.889786  Biso 1.000000     C
    C   1.0     0.898245     0.584486     0.889759  Biso 1.000000     C
    C   1.0     0.372303     0.512791     0.941880  Biso 1.000000     C
    C   1.0     0.872323     0.512814     0.941845  Biso 1.000000     C
    C   1.0     0.368996     0.540488     0.027938  Biso 1.000000     C
    C   1.0     0.869009     0.540479     0.027904  Biso 1.000000     C
    C   1.0     0.435414     0.238287     0.594990  Biso 1.000000     C
    C   1.0     0.935383     0.238277     0.594972  Biso 1.000000     C
    C   1.0     0.070447     0.373913     0.720024  Biso 1.000000     C
    C   1.0     0.570751     0.373569     0.719914  Biso 1.000000     C
    C   1.0     0.491870     0.247062     0.554198  Biso 1.000000     C
    C   1.0     0.991850     0.247134     0.554224  Biso 1.000000     C
    C   1.0     0.486852     0.261009     0.465922  Biso 1.000000     C
    C   1.0     0.986858     0.261040     0.465939  Biso 1.000000     C
    C   1.0    -0.003302     0.059998     0.303684  Biso 1.000000     C
    C   1.0     0.496695     0.060004     0.303677  Biso 1.000000     C
    C   1.0     0.436791     0.039240     0.326134  Biso 1.000000     C
    C   1.0     0.936797     0.039228     0.326125  Biso 1.000000     C
    C   1.0     0.436535     0.012768     0.413585  Biso 1.000000     C
    C   1.0     0.936530     0.012760     0.413577  Biso 1.000000     C
    C   1.0     0.363685     0.281711     0.223780  Biso 1.000000     C
    C   1.0     0.863679     0.281604     0.223776  Biso 1.000000     C
    C   1.0     0.307564     0.277573     0.183707  Biso 1.000000     C
    C   1.0     0.807560     0.277513     0.183700  Biso 1.000000     C
    C   1.0     0.270947     0.205547     0.221566  Biso 1.000000     C
    C   1.0     0.770936     0.205492     0.221544  Biso 1.000000     C
    C   1.0     0.214343     0.196702     0.180095  Biso 1.000000     C
    C   1.0     0.714327     0.196682     0.180084  Biso 1.000000     C
    C   1.0     0.221174     0.180853     0.092036  Biso 1.000000     C
    C   1.0     0.721155     0.180841     0.092024  Biso 1.000000     C
    C   1.0     0.410793     0.966942     0.274918  Biso 1.000000     C
    C   1.0     0.910805     0.966931     0.274905  Biso 1.000000     C
    C   1.0     0.352250     0.941535     0.302627  Biso 1.000000     C
    C   1.0     0.852254     0.941544     0.302597  Biso 1.000000     C
    C   1.0     0.325892     0.866647     0.255287  Biso 1.000000     C
    C   1.0     0.825893     0.866679     0.255238  Biso 1.000000     C
    C   1.0     0.352001     0.914824     0.389886  Biso 1.000000     C
    C   1.0     0.852001     0.914812     0.389851  Biso 1.000000     C
    C   1.0     0.377650     0.986918     0.441500  Biso 1.000000     C
    C   1.0     0.877643     0.986899     0.441477  Biso 1.000000     C
    C   1.0     0.381007     0.959589     0.527676  Biso 1.000000     C
    C   1.0     0.880996     0.959569     0.527653  Biso 1.000000     C
    C   1.0     0.314712     0.261695     0.094901  Biso 1.000000     C
    C   1.0     0.814696     0.261672     0.094888  Biso 1.000000     C
    C   1.0     0.179937     0.125796     0.220788  Biso 1.000000     C
    C   1.0     0.679922     0.125782     0.220779  Biso 1.000000     C
    C   1.0     0.258233     0.252496     0.054218  Biso 1.000000     C
    C   1.0     0.758215     0.252484     0.054209  Biso 1.000000     C
    C   1.0     0.263182     0.238657     0.965935  Biso 1.000000     C
    C   1.0     0.763169     0.238655     0.965927  Biso 1.000000     C
    C   1.0     0.246693     0.560058     0.196061  Biso 1.000000     C
    C   1.0     0.746739     0.560046     0.196049  Biso 1.000000     C
    C   1.0     0.186832     0.539589     0.173343  Biso 1.000000     C
    C   1.0     0.686878     0.539558     0.173314  Biso 1.000000     C
    C   1.0     0.186605     0.512694     0.086077  Biso 1.000000     C
    C   1.0     0.686635     0.512691     0.086040  Biso 1.000000     C
    C   1.0     0.113617     0.781437     0.276174  Biso 1.000000     C
    C   1.0     0.613565     0.781385     0.276151  Biso 1.000000     C
    C   1.0     0.057469     0.777452     0.316168  Biso 1.000000     C
    C   1.0     0.557411     0.777429     0.316146  Biso 1.000000     C
    C   1.0     0.020741     0.705491     0.278643  Biso 1.000000     C
    C   1.0     0.520617     0.705511     0.278660  Biso 1.000000     C
    C   1.0     0.464009     0.697173     0.320206  Biso 1.000000     C
    C   1.0     0.964132     0.697009     0.320147  Biso 1.000000     C
    C   1.0     0.470816     0.681542     0.408328  Biso 1.000000     C
    C   1.0     0.970916     0.681398     0.408279  Biso 1.000000     C
    C   1.0     0.160643     0.467700     0.224975  Biso 1.000000     C
    C   1.0     0.660685     0.467667     0.224937  Biso 1.000000     C
    C   1.0     0.102061     0.442597     0.197377  Biso 1.000000     C
    C   1.0     0.602090     0.442620     0.197355  Biso 1.000000     C
    C   1.0     0.075645     0.368040     0.245260  Biso 1.000000     C
    C   1.0     0.575654     0.368083     0.245249  Biso 1.000000     C
    C   1.0     0.101749     0.415533     0.110244  Biso 1.000000     C
    C   1.0     0.601753     0.415572     0.110217  Biso 1.000000     C
    C   1.0     0.127676     0.487201     0.058157  Biso 1.000000     C
    C   1.0     0.627697     0.487226     0.058121  Biso 1.000000     C
    C   1.0     0.130991     0.459529     0.972098  Biso 1.000000     C
    C   1.0     0.631005     0.459521     0.972065  Biso 1.000000     C
    C   1.0     0.064619     0.761741     0.405039  Biso 1.000000     C
    C   1.0     0.564583     0.761725     0.405017  Biso 1.000000     C
    C   1.0     0.429278     0.626381     0.280082  Biso 1.000000     C
    C   1.0     0.929614     0.626030     0.279961  Biso 1.000000     C
    C   1.0     0.008149     0.752869     0.445778  Biso 1.000000     C
    C   1.0     0.508127     0.752933     0.445805  Biso 1.000000     C
    C   1.0     0.013139     0.738959     0.534064  Biso 1.000000     C
    C   1.0     0.513144     0.738984     0.534081  Biso 1.000000     C
    C   1.0     0.503305     0.939996     0.696334  Biso 1.000000     C
    C   1.0     0.000000     0.940002     0.696327  Biso 1.000000     C
    C   1.0     0.063201     0.960781     0.673885  Biso 1.000000     C
    C   1.0     0.563207     0.960770     0.673879  Biso 1.000000     C
    C   1.0     0.063467     0.987249     0.586433  Biso 1.000000     C
    C   1.0     0.563461     0.987244     0.586428  Biso 1.000000     C
    C   1.0     0.136314     0.718381     0.776243  Biso 1.000000     C
    C   1.0     0.636312     0.718275     0.776229  Biso 1.000000     C
    C   1.0     0.192435     0.722484     0.816312  Biso 1.000000     C
    C   1.0     0.692432     0.722425     0.816303  Biso 1.000000     C
    C   1.0     0.229056     0.794508     0.778465  Biso 1.000000     C
    C   1.0     0.729044     0.794456     0.778442  Biso 1.000000     C
    C   1.0     0.285664     0.803323     0.819926  Biso 1.000000     C
    C   1.0     0.785649     0.803303     0.819912  Biso 1.000000     C
    C   1.0     0.278837     0.819166     0.907986  Biso 1.000000     C
    C   1.0     0.778817     0.819158     0.907971  Biso 1.000000     C
    C   1.0     0.089191     0.033082     0.725104  Biso 1.000000     C
    C   1.0     0.589201     0.033071     0.725095  Biso 1.000000     C
    C   1.0     0.147741     0.058471     0.697413  Biso 1.000000     C
    C   1.0     0.647745     0.058480     0.697388  Biso 1.000000     C
    C   1.0     0.174105     0.133336     0.744773  Biso 1.000000     C
    C   1.0     0.674106     0.133363     0.744730  Biso 1.000000     C
    C   1.0     0.147993     0.085202     0.610159  Biso 1.000000     C
    C   1.0     0.647992     0.085192     0.610129  Biso 1.000000     C
    C   1.0     0.122353     0.013111     0.558534  Biso 1.000000     C
    C   1.0     0.622346     0.013097     0.558515  Biso 1.000000     C
    C   1.0     0.119001     0.040436     0.472357  Biso 1.000000     C
    C   1.0     0.618991     0.040420     0.472338  Biso 1.000000     C
    C   1.0     0.185297     0.738330     0.905123  Biso 1.000000     C
    C   1.0     0.685282     0.738305     0.905108  Biso 1.000000     C
    C   1.0     0.320069     0.874218     0.779223  Biso 1.000000     C
    C   1.0     0.820058     0.874202     0.779215  Biso 1.000000     C
    C   1.0     0.241779     0.747521     0.945801  Biso 1.000000     C
    C   1.0     0.741762     0.747511     0.945790  Biso 1.000000     C
    C   1.0     0.236829     0.761351     0.034082  Biso 1.000000     C
    C   1.0     0.736814     0.761345     0.034074  Biso 1.000000     C
    O   1.0     0.236206     0.359733     0.799867  Biso 1.000000     O
    O   1.0     0.736217     0.359738     0.799869  Biso 1.000000     O
    O   1.0     0.361413     0.288279     0.736720  Biso 1.000000     O
    O   1.0     0.861369     0.288237     0.736706  Biso 1.000000     O
    O   1.0     0.363786     0.145132     0.746084  Biso 1.000000     O
    O   1.0     0.863756     0.145090     0.746086  Biso 1.000000     O
    O   1.0     0.222237     0.503789     0.793506  Biso 1.000000     O
    O   1.0     0.722301     0.503805     0.793514  Biso 1.000000     O
    O   1.0     0.391423     0.682661     0.720058  Biso 1.000000     O
    O   1.0     0.891417     0.682666     0.720032  Biso 1.000000     O
    O   1.0     0.477000     0.637998     0.756733  Biso 1.000000     O
    O   1.0     0.977004     0.638097     0.756755  Biso 1.000000     O
    O   1.0     0.354166     0.618341     0.040278  Biso 1.000000     O
    O   1.0     0.854180     0.618323     0.040289  Biso 1.000000     O
    O   1.0     0.379302     0.482718     0.078898  Biso 1.000000     O
    O   1.0     0.879316     0.482664     0.078824  Biso 1.000000     O
    O   1.0     0.083519     0.363186     0.793154  Biso 1.000000     O
    O   1.0     0.583428     0.363137     0.793224  Biso 1.000000     O
    O   1.0     0.084301     0.443449     0.684377  Biso 1.000000     O
    O   1.0     0.585170     0.442677     0.684003  Biso 1.000000     O
    O   1.0     0.030506     0.281868     0.426515  Biso 1.000000     O
    O   1.0     0.530500     0.281858     0.426489  Biso 1.000000     O
    O   1.0     0.439622     0.251916     0.433273  Biso 1.000000     O
    O   1.0     0.939632     0.251921     0.433277  Biso 1.000000     O
    O   1.0     0.013688     0.140288     0.299750  Biso 1.000000     O
    O   1.0     0.513689     0.140292     0.299745  Biso 1.000000     O
    O   1.0     0.388830     0.212101     0.236589  Biso 1.000000     O
    O   1.0     0.888819     0.211990     0.236575  Biso 1.000000     O
    O   1.0     0.386204     0.355153     0.246164  Biso 1.000000     O
    O   1.0     0.886203     0.355040     0.246165  Biso 1.000000     O
    O   1.0     0.027829    -0.003717     0.293395  Biso 1.000000     O
    O   1.0     0.527824    -0.003714     0.293395  Biso 1.000000     O
    O   1.0     0.358832     0.817086     0.219404  Biso 1.000000     O
    O   1.0     0.858839     0.817159     0.219322  Biso 1.000000     O
    O   1.0     0.273331     0.859041     0.258930  Biso 1.000000     O
    O   1.0     0.773333     0.859033     0.258911  Biso 1.000000     O
    O   1.0     0.395867     0.881835     0.540508  Biso 1.000000     O
    O   1.0     0.895864     0.881821     0.540490  Biso 1.000000     O
    O   1.0     0.370725     0.017664     0.578218  Biso 1.000000     O
    O   1.0     0.870721     0.017651     0.578191  Biso 1.000000     O
    O   1.0     0.166465     0.137071     0.293607  Biso 1.000000     O
    O   1.0     0.666457     0.137065     0.293600  Biso 1.000000     O
    O   1.0     0.166634     0.055662     0.185891  Biso 1.000000     O
    O   1.0     0.666625     0.055641     0.185889  Biso 1.000000     O
    O   1.0     0.219519     0.217847     0.926567  Biso 1.000000     O
    O   1.0     0.719508     0.217838     0.926557  Biso 1.000000     O
    O   1.0     0.310381     0.247947     0.933211  Biso 1.000000     O
    O   1.0     0.810370     0.247945     0.933211  Biso 1.000000     O
    O   1.0     0.263789     0.640259     0.200139  Biso 1.000000     O
    O   1.0     0.763800     0.640265     0.200141  Biso 1.000000     O
    O   1.0     0.138637     0.711774     0.263309  Biso 1.000000     O
    O   1.0     0.638588     0.711725     0.263289  Biso 1.000000     O
    O   1.0     0.136254     0.854920     0.253920  Biso 1.000000     O
    O   1.0     0.636217     0.854873     0.253924  Biso 1.000000     O
    O   1.0     0.277704     0.496191     0.206492  Biso 1.000000     O
    O   1.0     0.777773     0.496210     0.206502  Biso 1.000000     O
    O   1.0     0.108586     0.317354     0.279982  Biso 1.000000     O
    O   1.0     0.608580     0.317363     0.279956  Biso 1.000000     O
    O   1.0     0.022997     0.361904     0.243248  Biso 1.000000     O
    O   1.0     0.523002     0.362006     0.243271  Biso 1.000000     O
    O   1.0     0.145820     0.381683     0.959722  Biso 1.000000     O
    O   1.0     0.645834     0.381664     0.959734  Biso 1.000000     O
    O   1.0     0.120685     0.517335     0.921170  Biso 1.000000     O
    O   1.0     0.620698     0.517281     0.921096  Biso 1.000000     O
    O   1.0     0.416562     0.636846     0.206789  Biso 1.000000     O
    O   1.0     0.916459     0.636804     0.206866  Biso 1.000000     O
    O   1.0     0.414906     0.557234     0.315968  Biso 1.000000     O
    O   1.0     0.915891     0.556404     0.315555  Biso 1.000000     O
    O   1.0     0.469497     0.718139     0.573516  Biso 1.000000     O
    O   1.0     0.969490     0.718127     0.573485  Biso 1.000000     O
    O   1.0     0.060366     0.748069     0.566728  Biso 1.000000     O
    O   1.0     0.560375     0.748075     0.566729  Biso 1.000000     O
    O   1.0     0.486314     0.859706     0.700262  Biso 1.000000     O
    O   1.0     0.986315     0.859711     0.700256  Biso 1.000000     O
    O   1.0     0.111179     0.787996     0.763424  Biso 1.000000     O
    O   1.0     0.611166     0.787884     0.763416  Biso 1.000000     O
    O   1.0     0.113799     0.644944     0.753842  Biso 1.000000     O
    O   1.0     0.613797     0.644832     0.753843  Biso 1.000000     O
    O   1.0     0.472172     0.000000     0.706616  Biso 1.000000     O
    O   1.0     0.972168     0.000000     0.706614  Biso 1.000000     O
    O   1.0     0.141160     0.182879     0.780666  Biso 1.000000     O
    O   1.0     0.641167     0.182943     0.780595  Biso 1.000000     O
    O   1.0     0.226665     0.140953     0.741127  Biso 1.000000     O
    O   1.0     0.726667     0.140946     0.741109  Biso 1.000000     O
    O   1.0     0.104137     0.118185     0.459515  Biso 1.000000     O
    O   1.0     0.604134     0.118173     0.459500  Biso 1.000000     O
    O   1.0     0.129278     0.982353     0.421821  Biso 1.000000     O
    O   1.0     0.629272     0.982341     0.421799  Biso 1.000000     O
    O   1.0     0.333541     0.862927     0.706408  Biso 1.000000     O
    O   1.0     0.833532     0.862920     0.706399  Biso 1.000000     O
    O   1.0     0.333377     0.944352     0.814118  Biso 1.000000     O
    O   1.0     0.833365     0.944335     0.814111  Biso 1.000000     O
    O   1.0     0.280491     0.782162     0.073454  Biso 1.000000     O
    O   1.0     0.780477     0.782159     0.073440  Biso 1.000000     O
    O   1.0     0.189630     0.752045     0.066801  Biso 1.000000     O
    O   1.0     0.689618     0.752045     0.066800  Biso 1.000000     O
   Cd   1.0     0.156464     0.297762     0.855828  Biso 1.000000    Cd
   Cd   1.0     0.656456     0.297785     0.855831  Biso 1.000000    Cd
   Cd   1.0     0.286567     0.226866     0.805028  Biso 1.000000    Cd
   Cd   1.0     0.786545     0.226856     0.805035  Biso 1.000000    Cd
   Cd   1.0     0.379161     0.000000     0.708630  Biso 1.000000    Cd
   Cd   1.0     0.879154     0.000000     0.708607  Biso 1.000000    Cd
   Cd   1.0     0.093417     0.202380     0.355521  Biso 1.000000    Cd
   Cd   1.0     0.593424     0.202383     0.355510  Biso 1.000000    Cd
   Cd   1.0     0.463455     0.273470     0.305183  Biso 1.000000    Cd
   Cd   1.0     0.963438     0.273451     0.305193  Biso 1.000000    Cd
   Cd   1.0     0.370636     0.492458     0.209461  Biso 1.000000    Cd
   Cd   1.0     0.870763     0.492330     0.209369  Biso 1.000000    Cd
   Cd   1.0     0.343546     0.702226     0.144184  Biso 1.000000    Cd
   Cd   1.0     0.843535     0.702256     0.144182  Biso 1.000000    Cd
   Cd   1.0     0.213461     0.773144     0.194976  Biso 1.000000    Cd
   Cd   1.0     0.713436     0.773135     0.194984  Biso 1.000000    Cd
   Cd   1.0     0.120844    -0.008050     0.291403  Biso 1.000000    Cd
   Cd   1.0     0.620837    -0.008078     0.291386  Biso 1.000000    Cd
   Cd   1.0     0.406578     0.797628     0.644494  Biso 1.000000    Cd
   Cd   1.0     0.906585     0.797630     0.644483  Biso 1.000000    Cd
   Cd   1.0     0.036563     0.726552     0.694811  Biso 1.000000    Cd
   Cd   1.0     0.536545     0.726531     0.694819  Biso 1.000000    Cd
   Cd   1.0     0.129260     0.507651     0.790623  Biso 1.000000    Cd
   Cd   1.0     0.629373     0.507522     0.790530  Biso 1.000000    Cd
