#======================================================================

# CRYSTAL DATA

#----------------------------------------------------------------------

data_VESTA_phase_1


_pd_phase_name                         MOF
_cell_length_a                         12.94100
_cell_length_b                         12.92200
_cell_length_c                         15.11100
_cell_angle_alpha                      85.38800
_cell_angle_beta                       65.32500
_cell_angle_gamma                      89.12600
_symmetry_space_group_name_H-M         "P 1"
_symmetry_Int_Tables_number            1

loop_
_symmetry_equiv_pos_as_xyz
   "x, y, z"

loop_
   _atom_site_label
   _atom_site_occupancy
   _atom_site_fract_x
   _atom_site_fract_y
   _atom_site_fract_z
   _atom_site_adp_type
   _atom_site_B_iso_or_equiv
   _atom_site_type_symbol
    H   1.0     0.771954     0.573021     0.720792  Biso 1.000000     H
    H   1.0     0.915111     0.723078     0.585122  Biso 1.000000     H
    H   1.0     0.069348     0.705227     0.343818  Biso 1.000000     H
    H   1.0     0.043230     0.571073     0.222044  Biso 1.000000     H
    H   1.0     0.164743     0.937790     0.202624  Biso 1.000000     H
    H   1.0     0.284821     0.796584     0.070083  Biso 1.000000     H
    H   1.0     0.366611     0.230624     0.257891  Biso 1.000000     H
    H   1.0     0.415402     0.086685     0.377893  Biso 1.000000     H
    H   1.0     0.229427     0.431343     0.278524  Biso 1.000000     H
    H   1.0     0.086332     0.281333     0.414276  Biso 1.000000     H
    H   1.0     0.930527     0.297597     0.655336  Biso 1.000000     H
    H   1.0     0.956335     0.430784     0.777971  Biso 1.000000     H
    H   1.0     0.837299     0.064422     0.796079  Biso 1.000000     H
    H   1.0     0.717719     0.206211     0.928086  Biso 1.000000     H
    H   1.0     0.634283     0.770187     0.739701  Biso 1.000000     H
    H   1.0     0.585097     0.914712     0.620363  Biso 1.000000     H
    H   1.0     0.000000     0.324588     0.080136  Biso 1.000000     H
    H   1.0     0.942098     0.323844     0.208313  Biso 1.000000     H
    H   1.0     0.940311     0.214829     0.143995  Biso 1.000000     H
    H   1.0     0.859294     0.245381     0.000000  Biso 1.000000     H
    H   1.0     0.791526     0.367294     0.000000  Biso 1.000000     H
    H   1.0     0.943550     0.362267     0.962783  Biso 1.000000     H
    H   1.0     0.861661     0.430526     0.120270  Biso 1.000000     H
    H   1.0     0.778514     0.325848     0.169995  Biso 1.000000     H
    H   1.0     0.609364     0.692143     0.372439  Biso 1.000000     H
    H   1.0     0.555156     0.721000     0.498493  Biso 1.000000     H
    H   1.0     0.465447     0.733002     0.434154  Biso 1.000000     H
    H   1.0     0.512003     0.873446     0.298033  Biso 1.000000     H
    H   1.0     0.626417     0.963340     0.276073  Biso 1.000000     H
    H   1.0     0.656200     0.831283     0.245124  Biso 1.000000     H
    H   1.0     0.533145     0.899235     0.446771  Biso 1.000000     H
    H   1.0     0.669658     0.864524     0.396427  Biso 1.000000     H
    H   1.0    -0.031025     0.677419     0.919141  Biso 1.000000     H
    H   1.0     0.058580     0.677370     0.790980  Biso 1.000000     H
    H   1.0     0.061438     0.786512     0.854794  Biso 1.000000     H
    H   1.0     0.141855     0.755412    -0.014853  Biso 1.000000     H
    H   1.0     0.209285     0.633315    -0.010197  Biso 1.000000     H
    H   1.0     0.057275     0.638725     0.036515  Biso 1.000000     H
    H   1.0     0.138473     0.570268     0.879239  Biso 1.000000     H
    H   1.0     0.222331     0.674491     0.829275  Biso 1.000000     H
    H   1.0     0.392381     0.310053     0.626056  Biso 1.000000     H
    H   1.0     0.446999     0.281078     0.500021  Biso 1.000000     H
    H   1.0     0.536060     0.268276     0.564935  Biso 1.000000     H
    H   1.0     0.488238     0.127621     0.700905  Biso 1.000000     H
    H   1.0     0.373159     0.038592     0.722637  Biso 1.000000     H
    H   1.0     0.344392     0.170721     0.753591  Biso 1.000000     H
    H   1.0     0.467198     0.102631     0.552012  Biso 1.000000     H
    H   1.0     0.330997     0.138325     0.602025  Biso 1.000000     H
    C   1.0     0.735658     0.617364     0.923461  Biso 1.000000     C
    C   1.0     0.795055     0.668948     0.824409  Biso 1.000000     C
    C   1.0     0.810190     0.641091     0.733560  Biso 1.000000     C
    C   1.0     0.883094     0.718076     0.664109  Biso 1.000000     C
    C   1.0     0.907632     0.789134     0.716488  Biso 1.000000     C
    C   1.0     0.985813     0.880069     0.687568  Biso 1.000000     C
    C   1.0     0.884175     0.857657     0.404879  Biso 1.000000     C
    C   1.0     0.909581     0.766936     0.346786  Biso 1.000000     C
    C   1.0     0.000000     0.701468     0.320767  Biso 1.000000     C
    C   1.0     0.987522     0.633011     0.257443  Biso 1.000000     C
    C   1.0     0.888632     0.660017     0.248461  Biso 1.000000     C
    C   1.0     0.832639     0.616570     0.191954  Biso 1.000000     C
    C   1.0     0.235173     0.927384     0.367837  Biso 1.000000     C
    C   1.0     0.270694     0.877656     0.275969  Biso 1.000000     C
    C   1.0     0.230925     0.885845     0.204049  Biso 1.000000     C
    C   1.0     0.292108     0.813055     0.136448  Biso 1.000000     C
    C   1.0     0.365879     0.764985     0.170514  Biso 1.000000     C
    C   1.0     0.452019     0.684502     0.131910  Biso 1.000000     C
    C   1.0     0.555188     0.393858     0.168456  Biso 1.000000     C
    C   1.0     0.533406     0.295664     0.231176  Biso 1.000000     C
    C   1.0     0.442707     0.226556     0.271178  Biso 1.000000     C
    C   1.0     0.468034     0.152290     0.333474  Biso 1.000000     C
    C   1.0     0.573829     0.179103     0.327036  Biso 1.000000     C
    C   1.0     0.643725     0.132259     0.374662  Biso 1.000000     C
    C   1.0     0.265373     0.386824     0.075689  Biso 1.000000     C
    C   1.0     0.205973     0.335546     0.174956  Biso 1.000000     C
    C   1.0     0.191062     0.363346     0.265770  Biso 1.000000     C
    C   1.0     0.118189     0.286363     0.335300  Biso 1.000000     C
    C   1.0     0.093450     0.215325     0.283017  Biso 1.000000     C
    C   1.0     0.015394     0.124259     0.311727  Biso 1.000000     C
    C   1.0     0.116753     0.146228     0.592526  Biso 1.000000     C
    C   1.0     0.091200     0.236709     0.650964  Biso 1.000000     C
    C   1.0    -0.000572     0.301533     0.677968  Biso 1.000000     C
    C   1.0     0.012539     0.369498     0.741726  Biso 1.000000     C
    C   1.0     0.111954     0.342888     0.749947  Biso 1.000000     C
    C   1.0     0.167880     0.385783     0.806745  Biso 1.000000     C
    C   1.0     0.765607     0.073506     0.631565  Biso 1.000000     C
    C   1.0     0.730163     0.123260     0.723405  Biso 1.000000     C
    C   1.0     0.770734     0.115960     0.794814  Biso 1.000000     C
    C   1.0     0.709743     0.189029     0.862183  Biso 1.000000     C
    C   1.0     0.635360     0.236438     0.828453  Biso 1.000000     C
    C   1.0     0.549211     0.316997     0.866826  Biso 1.000000     C
    C   1.0     0.445902     0.607086     0.829247  Biso 1.000000     C
    C   1.0     0.467453     0.705231     0.766453  Biso 1.000000     C
    C   1.0     0.558144     0.774345     0.726479  Biso 1.000000     C
    C   1.0     0.532586     0.848948     0.664592  Biso 1.000000     C
    C   1.0     0.426704     0.822296     0.671150  Biso 1.000000     C
    C   1.0     0.356608     0.870169     0.624128  Biso 1.000000     C
    C   1.0     0.949445     0.299481     0.138278  Biso 1.000000     C
    C   1.0     0.863028     0.329366     0.000000  Biso 1.000000     C
    C   1.0     0.552500     0.741169     0.427727  Biso 1.000000     C
    C   1.0     0.596777     0.882490     0.296355  Biso 1.000000     C
    C   1.0     0.051592     0.701906     0.860861  Biso 1.000000     C
    C   1.0     0.137852     0.671440    -0.019401  Biso 1.000000     C
    C   1.0     0.449103     0.260742     0.570977  Biso 1.000000     C
    C   1.0     0.403465     0.119269     0.702406  Biso 1.000000     C
    N   1.0     0.857320     0.349265     0.116312  Biso 1.000000     N
    N   1.0     0.590167     0.851636     0.395863  Biso 1.000000     N
    N   1.0     0.143362     0.651565     0.882977  Biso 1.000000     N
    N   1.0     0.410503     0.150487     0.602830  Biso 1.000000     N
    O   1.0     0.746848     0.661998    -0.007740  Biso 1.000000     O
    O   1.0     0.682119     0.532828     0.934255  Biso 1.000000     O
    O   1.0     0.853422     0.760035     0.814504  Biso 1.000000     O
    O   1.0    -0.004792     0.932971     0.748292  Biso 1.000000     O
    O   1.0     0.048966     0.893189     0.591462  Biso 1.000000     O
    O   1.0     0.795586     0.910988     0.412369  Biso 1.000000     O
    O   1.0     0.952439     0.875143     0.441770  Biso 1.000000     O
    O   1.0     0.839820     0.742060     0.303333  Biso 1.000000     O
    O   1.0     0.888426     0.552123     0.131695  Biso 1.000000     O
    O   1.0     0.732264     0.648519     0.208055  Biso 1.000000     O
    O   1.0     0.283632     0.898382     0.424431  Biso 1.000000     O
    O   1.0     0.159226     0.995573     0.384466  Biso 1.000000     O
    O   1.0     0.353567     0.804221     0.255903  Biso 1.000000     O
    O   1.0     0.511145     0.661989     0.180707  Biso 1.000000     O
    O   1.0     0.459836     0.647350     0.054447  Biso 1.000000     O
    O   1.0     0.644772     0.444879     0.158620  Biso 1.000000     O
    O   1.0     0.485487     0.418939     0.133041  Biso 1.000000     O
    O   1.0     0.614897     0.266792     0.264333  Biso 1.000000     O
    O   1.0     0.748700     0.159385     0.343057  Biso 1.000000     O
    O   1.0     0.596164     0.064675     0.445958  Biso 1.000000     O
    O   1.0     0.253272     0.341930     0.000000  Biso 1.000000     O
    O   1.0     0.319648     0.471011     0.064242  Biso 1.000000     O
    O   1.0     0.147506     0.244477     0.184999  Biso 1.000000     O
    O   1.0     0.000000     0.071446     0.250694  Biso 1.000000     O
    O   1.0     0.951896     0.110880     0.407762  Biso 1.000000     O
    O   1.0     0.205686     0.093183     0.584818  Biso 1.000000     O
    O   1.0     0.048507     0.128502     0.555736  Biso 1.000000     O
    O   1.0     0.161217     0.261606     0.694180  Biso 1.000000     O
    O   1.0     0.111471     0.448940     0.868183  Biso 1.000000     O
    O   1.0     0.268772     0.354670     0.789764  Biso 1.000000     O
    O   1.0     0.716712     0.102230     0.575234  Biso 1.000000     O
    O   1.0     0.841961     0.005706     0.614696  Biso 1.000000     O
    O   1.0     0.647022     0.196416     0.743565  Biso 1.000000     O
    O   1.0     0.488991     0.337936     0.818679  Biso 1.000000     O
    O   1.0     0.542514     0.355743     0.943227  Biso 1.000000     O
    O   1.0     0.356083     0.556027     0.839889  Biso 1.000000     O
    O   1.0     0.516202     0.582066     0.864088  Biso 1.000000     O
    O   1.0     0.385757     0.734317     0.733559  Biso 1.000000     O
    O   1.0     0.251264     0.844353     0.656356  Biso 1.000000     O
    O   1.0     0.404499     0.937568     0.552656  Biso 1.000000     O
   Zn   1.0     0.661036     0.596283     0.124415  Biso 1.000000    Zn
   Zn   1.0     0.209208     0.941679     0.560859  Biso 1.000000    Zn
   Zn   1.0     0.339875     0.404428     0.874383  Biso 1.000000    Zn
   Zn   1.0     0.791795     0.062367     0.437829  Biso 1.000000    Zn
   Zn   1.0     0.501199     0.501835    -0.001251  Biso 1.000000    Zn
   Zn   1.0     0.000292     0.000721     0.499243  Biso 1.000000    Zn
