#======================================================================

# CRYSTAL DATA

#----------------------------------------------------------------------

data_VESTA_phase_1


_pd_phase_name                         MOF
_cell_length_a                         18.86000
_cell_length_b                         13.31900
_cell_length_c                         23.22400
_cell_angle_alpha                      94.58400
_cell_angle_beta                       90.00000
_cell_angle_gamma                      90.00000
_symmetry_space_group_name_H-M         "P 1"
_symmetry_Int_Tables_number            1

loop_
_symmetry_equiv_pos_as_xyz
   "x, y, z"

loop_
   _atom_site_label
   _atom_site_occupancy
   _atom_site_fract_x
   _atom_site_fract_y
   _atom_site_fract_z
   _atom_site_adp_type
   _atom_site_B_iso_or_equiv
   _atom_site_type_symbol
    H   1.0     0.083612     0.338828     0.734198  Biso 1.000000     H
    H   1.0     0.588343     0.338727     0.734096  Biso 1.000000     H
    H   1.0     0.498666     0.338208     0.812703  Biso 1.000000     H
    H   1.0     0.000000     0.338353     0.812871  Biso 1.000000     H
    H   1.0     0.358438     0.512851     0.714434  Biso 1.000000     H
    H   1.0     0.863350     0.512642     0.714565  Biso 1.000000     H
    H   1.0     0.448341     0.513330     0.635965  Biso 1.000000     H
    H   1.0     0.953189     0.513101     0.636044  Biso 1.000000     H
    H   1.0     0.316437     0.444636     0.797436  Biso 1.000000     H
    H   1.0     0.821480     0.444601     0.797599  Biso 1.000000     H
    H   1.0     0.485141     0.571574     0.827132  Biso 1.000000     H
    H   1.0     0.990206     0.571542     0.827323  Biso 1.000000     H
    H   1.0     0.496057     0.732924     0.888970  Biso 1.000000     H
    H   1.0     0.000000     0.732977     0.889099  Biso 1.000000     H
    H   1.0     0.284056     0.698292     0.950517  Biso 1.000000     H
    H   1.0     0.788963     0.698464     0.950473  Biso 1.000000     H
    H   1.0     0.272330     0.536607     0.889434  Biso 1.000000     H
    H   1.0     0.777300     0.536700     0.889445  Biso 1.000000     H
    H   1.0     0.272486     0.289090     0.814756  Biso 1.000000     H
    H   1.0     0.777622     0.289070     0.814813  Biso 1.000000     H
    H   1.0     0.262722     0.149513     0.877998  Biso 1.000000     H
    H   1.0     0.767755     0.149498     0.878059  Biso 1.000000     H
    H   1.0     0.449587     0.256421     0.970233  Biso 1.000000     H
    H   1.0     0.954400     0.256551     0.970550  Biso 1.000000     H
    H   1.0     0.455926     0.401878     0.909561  Biso 1.000000     H
    H   1.0     0.960841     0.401994     0.909866  Biso 1.000000     H
    H   1.0     0.301971     0.934955     0.878404  Biso 1.000000     H
    H   1.0     0.806949     0.935076     0.878278  Biso 1.000000     H
    H   1.0     0.310879     0.834370     0.783015  Biso 1.000000     H
    H   1.0     0.815845     0.834562     0.782862  Biso 1.000000     H
    H   1.0     0.091668     0.749564     0.804698  Biso 1.000000     H
    H   1.0     0.596755     0.749289     0.804694  Biso 1.000000     H
    H   1.0     0.092182     0.854628     0.898498  Biso 1.000000     H
    H   1.0     0.597267     0.854332     0.898503  Biso 1.000000     H
    H   1.0     0.084192     0.158488     0.777250  Biso 1.000000     H
    H   1.0     0.589056     0.158550     0.777218  Biso 1.000000     H
    H   1.0     0.499604     0.159015     0.698434  Biso 1.000000     H
    H   1.0     0.000000     0.158948     0.698453  Biso 1.000000     H
    H   1.0     0.357800     0.000000     0.797085  Biso 1.000000     H
    H   1.0     0.862576     0.000000     0.797201  Biso 1.000000     H
    H   1.0     0.447526     0.000000     0.875729  Biso 1.000000     H
    H   1.0     0.952284     0.000000     0.875861  Biso 1.000000     H
    H   1.0     0.316980     0.053669     0.713790  Biso 1.000000     H
    H   1.0     0.821843     0.053756     0.713836  Biso 1.000000     H
    H   1.0     0.484313     0.940250     0.685195  Biso 1.000000     H
    H   1.0     0.989180     0.940320     0.685276  Biso 1.000000     H
    H   1.0     0.494701     0.778118     0.624015  Biso 1.000000     H
    H   1.0     0.999586     0.778210     0.624076  Biso 1.000000     H
    H   1.0     0.283987     0.815639     0.560346  Biso 1.000000     H
    H   1.0     0.788900     0.815770     0.560359  Biso 1.000000     H
    H   1.0     0.272689     0.977864     0.620940  Biso 1.000000     H
    H   1.0     0.777586     0.977976     0.620968  Biso 1.000000     H
    H   1.0     0.272985     0.208975     0.696733  Biso 1.000000     H
    H   1.0     0.777827     0.209041     0.696732  Biso 1.000000     H
    H   1.0     0.262562     0.348407     0.633461  Biso 1.000000     H
    H   1.0     0.767425     0.348441     0.633437  Biso 1.000000     H
    H   1.0     0.449201     0.242159     0.540675  Biso 1.000000     H
    H   1.0     0.954128     0.242204     0.540734  Biso 1.000000     H
    H   1.0     0.456236     0.096881     0.601421  Biso 1.000000     H
    H   1.0     0.961138     0.096952     0.601500  Biso 1.000000     H
    H   1.0     0.302228     0.577877     0.633780  Biso 1.000000     H
    H   1.0     0.807172     0.577878     0.633648  Biso 1.000000     H
    H   1.0     0.310760     0.678400     0.729206  Biso 1.000000     H
    H   1.0     0.815776     0.678442     0.729055  Biso 1.000000     H
    H   1.0     0.092120     0.764930     0.706406  Biso 1.000000     H
    H   1.0     0.597087     0.764864     0.706390  Biso 1.000000     H
    H   1.0     0.092949     0.659831     0.612623  Biso 1.000000     H
    H   1.0     0.597855     0.659761     0.612608  Biso 1.000000     H
    H   1.0     0.420146     0.669314     0.273500  Biso 1.000000     H
    H   1.0     0.924969     0.669252     0.273495  Biso 1.000000     H
    H   1.0     0.004680     0.669296     0.194742  Biso 1.000000     H
    H   1.0     0.509628     0.669308     0.194739  Biso 1.000000     H
    H   1.0     0.145870     0.497539     0.293855  Biso 1.000000     H
    H   1.0     0.650678     0.497173     0.293757  Biso 1.000000     H
    H   1.0     0.056185     0.497798     0.372528  Biso 1.000000     H
    H   1.0     0.560995     0.497475     0.372433  Biso 1.000000     H
    H   1.0     0.187402     0.564404     0.210444  Biso 1.000000     H
    H   1.0     0.692276     0.564249     0.210399  Biso 1.000000     H
    H   1.0     0.019664     0.435399     0.181728  Biso 1.000000     H
    H   1.0     0.524461     0.435377     0.181544  Biso 1.000000     H
    H   1.0     0.009467     0.273401     0.120408  Biso 1.000000     H
    H   1.0     0.514288     0.273342     0.120251  Biso 1.000000     H
    H   1.0     0.220113     0.311646     0.056756  Biso 1.000000     H
    H   1.0     0.725136     0.311204     0.056944  Biso 1.000000     H
    H   1.0     0.231205     0.473742     0.117482  Biso 1.000000     H
    H   1.0     0.736218     0.473319     0.117658  Biso 1.000000     H
    H   1.0     0.231344     0.719840     0.193268  Biso 1.000000     H
    H   1.0     0.736164     0.719696     0.193262  Biso 1.000000     H
    H   1.0     0.241576     0.859231     0.129958  Biso 1.000000     H
    H   1.0     0.746400     0.859125     0.129981  Biso 1.000000     H
    H   1.0     0.054977     0.752540     0.037266  Biso 1.000000     H
    H   1.0     0.559918     0.752323     0.037164  Biso 1.000000     H
    H   1.0     0.048172     0.607266     0.098023  Biso 1.000000     H
    H   1.0     0.553109     0.607021     0.097899  Biso 1.000000     H
    H   1.0     0.202321     0.073676     0.129636  Biso 1.000000     H
    H   1.0     0.707171     0.073585     0.129818  Biso 1.000000     H
    H   1.0     0.193510     0.174479     0.224937  Biso 1.000000     H
    H   1.0     0.698406     0.174384     0.225126  Biso 1.000000     H
    H   1.0     0.412351     0.260509     0.202627  Biso 1.000000     H
    H   1.0     0.917241     0.260382     0.202753  Biso 1.000000     H
    H   1.0     0.411772     0.155181     0.108925  Biso 1.000000     H
    H   1.0     0.916620     0.155058     0.109054  Biso 1.000000     H
    H   1.0     0.420217     0.849249     0.230351  Biso 1.000000     H
    H   1.0     0.925026     0.849381     0.230463  Biso 1.000000     H
    H   1.0     0.004734     0.848938     0.309238  Biso 1.000000     H
    H   1.0     0.509729     0.848770     0.309099  Biso 1.000000     H
    H   1.0     0.145968     0.008139     0.211062  Biso 1.000000     H
    H   1.0     0.650806     0.008344     0.211010  Biso 1.000000     H
    H   1.0     0.056254     0.008525     0.132435  Biso 1.000000     H
    H   1.0     0.561068     0.008746     0.132398  Biso 1.000000     H
    H   1.0     0.187013     0.955441     0.294193  Biso 1.000000     H
    H   1.0     0.691947     0.955444     0.294077  Biso 1.000000     H
    H   1.0     0.018610     0.066630     0.323909  Biso 1.000000     H
    H   1.0     0.523572     0.066658     0.323796  Biso 1.000000     H
    H   1.0     0.007545     0.228146     0.385575  Biso 1.000000     H
    H   1.0     0.512490     0.228117     0.385510  Biso 1.000000     H
    H   1.0     0.219803     0.194573     0.446793  Biso 1.000000     H
    H   1.0     0.724707     0.194435     0.446797  Biso 1.000000     H
    H   1.0     0.231691     0.032746     0.385863  Biso 1.000000     H
    H   1.0     0.736606     0.032655     0.385826  Biso 1.000000     H
    H   1.0     0.231151     0.800222     0.311413  Biso 1.000000     H
    H   1.0     0.736115     0.800205     0.311324  Biso 1.000000     H
    H   1.0     0.241322     0.660686     0.374649  Biso 1.000000     H
    H   1.0     0.746256     0.660663     0.374559  Biso 1.000000     H
    H   1.0     0.054324     0.766734     0.466998  Biso 1.000000     H
    H   1.0     0.559198     0.766684     0.466836  Biso 1.000000     H
    H   1.0     0.047526     0.912107     0.406298  Biso 1.000000     H
    H   1.0     0.552439     0.912071     0.406146  Biso 1.000000     H
    H   1.0     0.201927     0.430813     0.374202  Biso 1.000000     H
    H   1.0     0.706857     0.430805     0.374330  Biso 1.000000     H
    H   1.0     0.193344     0.330419     0.278732  Biso 1.000000     H
    H   1.0     0.698240     0.330278     0.278904  Biso 1.000000     H
    H   1.0     0.412464     0.245564     0.300882  Biso 1.000000     H
    H   1.0     0.917407     0.245600     0.300995  Biso 1.000000     H
    H   1.0     0.411667     0.350549     0.394694  Biso 1.000000     H
    H   1.0     0.916633     0.350677     0.394774  Biso 1.000000     H
    C   1.0     0.074961     0.430112     0.634859  Biso 1.000000     C
    C   1.0     0.579841     0.430150     0.634806  Biso 1.000000     C
    C   1.0     0.019334     0.425663     0.680280  Biso 1.000000     C
    C   1.0     0.524167     0.425723     0.680191  Biso 1.000000     C
    C   1.0     0.032844     0.376775     0.730350  Biso 1.000000     C
    C   1.0     0.537601     0.376739     0.730238  Biso 1.000000     C
    C   1.0     0.487428     0.377521     0.774378  Biso 1.000000     C
    C   1.0     0.992484     0.377577     0.774523  Biso 1.000000     C
    C   1.0     0.422883     0.428150     0.769607  Biso 1.000000     C
    C   1.0     0.927904     0.428121     0.769754  Biso 1.000000     C
    C   1.0     0.409156     0.474967     0.718790  Biso 1.000000     C
    C   1.0     0.914099     0.474831     0.718915  Biso 1.000000     C
    C   1.0     0.458843     0.474439     0.674589  Biso 1.000000     C
    C   1.0     0.963747     0.474291     0.674686  Biso 1.000000     C
    C   1.0     0.368842     0.441553     0.818350  Biso 1.000000     C
    C   1.0     0.873888     0.441551     0.818508  Biso 1.000000     C
    C   1.0     0.378010     0.542615     0.853998  Biso 1.000000     C
    C   1.0     0.883034     0.542644     0.854114  Biso 1.000000     C
    C   1.0     0.440808     0.598901     0.854135  Biso 1.000000     C
    C   1.0     0.945840     0.598914     0.854275  Biso 1.000000     C
    C   1.0     0.447135     0.689416     0.888475  Biso 1.000000     C
    C   1.0     0.952128     0.689473     0.888577  Biso 1.000000     C
    C   1.0     0.390873     0.725699     0.923492  Biso 1.000000     C
    C   1.0     0.895820     0.725800     0.923529  Biso 1.000000     C
    C   1.0     0.327706     0.669814     0.923183  Biso 1.000000     C
    C   1.0     0.832645     0.669937     0.923189  Biso 1.000000     C
    C   1.0     0.321499     0.579789     0.888863  Biso 1.000000     C
    C   1.0     0.826475     0.579873     0.888905  Biso 1.000000     C
    C   1.0     0.397144     0.822399     0.961423  Biso 1.000000     C
    C   1.0     0.902060     0.822505     0.961449  Biso 1.000000     C
    C   1.0     0.365568     0.354404     0.856902  Biso 1.000000     C
    C   1.0     0.870605     0.354435     0.857079  Biso 1.000000     C
    C   1.0     0.311627     0.282200     0.848840  Biso 1.000000     C
    C   1.0     0.816691     0.282205     0.848952  Biso 1.000000     C
    C   1.0     0.306312     0.202858     0.884231  Biso 1.000000     C
    C   1.0     0.811319     0.202875     0.884338  Biso 1.000000     C
    C   1.0     0.356455     0.192869     0.927997  Biso 1.000000     C
    C   1.0     0.861378     0.192923     0.928169  Biso 1.000000     C
    C   1.0     0.411017     0.264429     0.935993  Biso 1.000000     C
    C   1.0     0.915905     0.264519     0.936248  Biso 1.000000     C
    C   1.0     0.414841     0.344876     0.901435  Biso 1.000000     C
    C   1.0     0.919788     0.344961     0.901684  Biso 1.000000     C
    C   1.0     0.352762     0.109234     0.966722  Biso 1.000000     C
    C   1.0     0.857612     0.109233     0.966844  Biso 1.000000     C
    C   1.0     0.256823     0.892502     0.860053  Biso 1.000000     C
    C   1.0     0.761823     0.892544     0.859952  Biso 1.000000     C
    C   1.0     0.261284     0.835996     0.807136  Biso 1.000000     C
    C   1.0     0.766280     0.836076     0.807021  Biso 1.000000     C
    C   1.0     0.201027     0.785057     0.784590  Biso 1.000000     C
    C   1.0     0.706047     0.785029     0.784510  Biso 1.000000     C
    C   1.0     0.139512     0.790268     0.818810  Biso 1.000000     C
    C   1.0     0.644570     0.790094     0.818777  Biso 1.000000     C
    C   1.0     0.139435     0.847712     0.871438  Biso 1.000000     C
    C   1.0     0.644495     0.847516     0.871411  Biso 1.000000     C
    C   1.0     0.075159     0.068352     0.876844  Biso 1.000000     C
    C   1.0     0.580087     0.068237     0.876775  Biso 1.000000     C
    C   1.0     0.019501     0.072679     0.831401  Biso 1.000000     C
    C   1.0     0.524437     0.072548     0.831323  Biso 1.000000     C
    C   1.0     0.033269     0.120982     0.781160  Biso 1.000000     C
    C   1.0     0.538162     0.120959     0.781111  Biso 1.000000     C
    C   1.0     0.488111     0.120155     0.736880  Biso 1.000000     C
    C   1.0     0.993001     0.120171     0.736921  Biso 1.000000     C
    C   1.0     0.423349     0.070097     0.741705  Biso 1.000000     C
    C   1.0     0.928205     0.070210     0.741768  Biso 1.000000     C
    C   1.0     0.409323     0.023847     0.792668  Biso 1.000000     C
    C   1.0     0.914132     0.024086     0.792764  Biso 1.000000     C
    C   1.0     0.458915     0.024396     0.836957  Biso 1.000000     C
    C   1.0     0.963713     0.024646     0.837063  Biso 1.000000     C
    C   1.0     0.369395     0.056732     0.692886  Biso 1.000000     C
    C   1.0     0.874263     0.056822     0.692941  Biso 1.000000     C
    C   1.0     0.377813     0.970611     0.657326  Biso 1.000000     C
    C   1.0     0.882693     0.970700     0.657383  Biso 1.000000     C
    C   1.0     0.440134     0.913374     0.657886  Biso 1.000000     C
    C   1.0     0.945010     0.913457     0.657953  Biso 1.000000     C
    C   1.0     0.446172     0.822428     0.623891  Biso 1.000000     C
    C   1.0     0.951058     0.822523     0.623947  Biso 1.000000     C
    C   1.0     0.390141     0.786735     0.588446  Biso 1.000000     C
    C   1.0     0.895041     0.786846     0.588482  Biso 1.000000     C
    C   1.0     0.327468     0.843635     0.588015  Biso 1.000000     C
    C   1.0     0.832371     0.843753     0.588042  Biso 1.000000     C
    C   1.0     0.321505     0.933996     0.622047  Biso 1.000000     C
    C   1.0     0.826399     0.934102     0.622083  Biso 1.000000     C
    C   1.0     0.396144     0.689759     0.550718  Biso 1.000000     C
    C   1.0     0.901046     0.689873     0.550749  Biso 1.000000     C
    C   1.0     0.365996     0.143948     0.654346  Biso 1.000000     C
    C   1.0     0.870871     0.144024     0.654390  Biso 1.000000     C
    C   1.0     0.311949     0.215984     0.662532  Biso 1.000000     C
    C   1.0     0.816810     0.216046     0.662545  Biso 1.000000     C
    C   1.0     0.306255     0.295256     0.627126  Biso 1.000000     C
    C   1.0     0.811128     0.295301     0.627125  Biso 1.000000     C
    C   1.0     0.356109     0.305397     0.583165  Biso 1.000000     C
    C   1.0     0.861008     0.305438     0.583181  Biso 1.000000     C
    C   1.0     0.410828     0.234075     0.575057  Biso 1.000000     C
    C   1.0     0.915736     0.234126     0.575103  Biso 1.000000     C
    C   1.0     0.415042     0.153694     0.609667  Biso 1.000000     C
    C   1.0     0.919938     0.153761     0.609724  Biso 1.000000     C
    C   1.0     0.351865     0.388888     0.544349  Biso 1.000000     C
    C   1.0     0.856793     0.388924     0.544357  Biso 1.000000     C
    C   1.0     0.257094     0.620673     0.651882  Biso 1.000000     C
    C   1.0     0.762048     0.620673     0.651769  Biso 1.000000     C
    C   1.0     0.261364     0.677146     0.704826  Biso 1.000000     C
    C   1.0     0.766354     0.677156     0.704709  Biso 1.000000     C
    C   1.0     0.201144     0.728563     0.727071  Biso 1.000000     C
    C   1.0     0.706140     0.728539     0.726990  Biso 1.000000     C
    C   1.0     0.139897     0.723838     0.692537  Biso 1.000000     C
    C   1.0     0.644862     0.723793     0.692492  Biso 1.000000     C
    C   1.0     0.140010     0.666392     0.639911  Biso 1.000000     C
    C   1.0     0.644942     0.666351     0.639865  Biso 1.000000     C
    C   1.0     0.429083     0.579769     0.373314  Biso 1.000000     C
    C   1.0     0.933978     0.579939     0.373363  Biso 1.000000     C
    C   1.0     0.484743     0.583725     0.327838  Biso 1.000000     C
    C   1.0     0.989637     0.583865     0.327885  Biso 1.000000     C
    C   1.0     0.471029     0.631738     0.277489  Biso 1.000000     C
    C   1.0     0.975884     0.631773     0.277507  Biso 1.000000     C
    C   1.0     0.016178     0.630694     0.233278  Biso 1.000000     C
    C   1.0     0.521093     0.630635     0.233256  Biso 1.000000     C
    C   1.0     0.080969     0.580759     0.238234  Biso 1.000000     C
    C   1.0     0.585844     0.580586     0.238182  Biso 1.000000     C
    C   1.0     0.094980     0.534889     0.289324  Biso 1.000000     C
    C   1.0     0.599819     0.534621     0.289249  Biso 1.000000     C
    C   1.0     0.045398     0.535808     0.333642  Biso 1.000000     C
    C   1.0     0.550239     0.535555     0.333566  Biso 1.000000     C
    C   1.0     0.135020     0.567353     0.189474  Biso 1.000000     C
    C   1.0     0.639897     0.567171     0.189423  Biso 1.000000     C
    C   1.0     0.126112     0.466132     0.153883  Biso 1.000000     C
    C   1.0     0.631008     0.465923     0.153862  Biso 1.000000     C
    C   1.0     0.063875     0.408705     0.154400  Biso 1.000000     C
    C   1.0     0.568719     0.408592     0.154296  Biso 1.000000     C
    C   1.0     0.057945     0.317824     0.120323  Biso 1.000000     C
    C   1.0     0.562803     0.317694     0.120236  Biso 1.000000     C
    C   1.0     0.114000     0.282346     0.084833  Biso 1.000000     C
    C   1.0     0.618919     0.282113     0.084844  Biso 1.000000     C
    C   1.0     0.176597     0.339430     0.084451  Biso 1.000000     C
    C   1.0     0.681572     0.339083     0.084558  Biso 1.000000     C
    C   1.0     0.182450     0.429733     0.118564  Biso 1.000000     C
    C   1.0     0.687415     0.429398     0.118660  Biso 1.000000     C
    C   1.0     0.108067     0.185404     0.047041  Biso 1.000000     C
    C   1.0     0.612978     0.185201     0.047033  Biso 1.000000     C
    C   1.0     0.138383     0.654558     0.150914  Biso 1.000000     C
    C   1.0     0.643257     0.654363     0.150852  Biso 1.000000     C
    C   1.0     0.192352     0.726721     0.159072  Biso 1.000000     C
    C   1.0     0.697198     0.726565     0.159046  Biso 1.000000     C
    C   1.0     0.197934     0.805988     0.123643  Biso 1.000000     C
    C   1.0     0.702781     0.805852     0.123632  Biso 1.000000     C
    C   1.0     0.148037     0.816000     0.079697  Biso 1.000000     C
    C   1.0     0.652916     0.815855     0.079661  Biso 1.000000     C
    C   1.0     0.093394     0.744552     0.071626  Biso 1.000000     C
    C   1.0     0.598309     0.744357     0.071546  Biso 1.000000     C
    C   1.0     0.089305     0.664176     0.106244  Biso 1.000000     C
    C   1.0     0.594217     0.663959     0.106151  Biso 1.000000     C
    C   1.0     0.152109     0.899466     0.040843  Biso 1.000000     C
    C   1.0     0.657000     0.899363     0.040831  Biso 1.000000     C
    C   1.0     0.247427     0.116451     0.147807  Biso 1.000000     C
    C   1.0     0.752289     0.116347     0.147978  Biso 1.000000     C
    C   1.0     0.243012     0.173070     0.200696  Biso 1.000000     C
    C   1.0     0.747898     0.172965     0.200870  Biso 1.000000     C
    C   1.0     0.303200     0.224429     0.223054  Biso 1.000000     C
    C   1.0     0.808096     0.224326     0.223210  Biso 1.000000     C
    C   1.0     0.364576     0.219492     0.188671  Biso 1.000000     C
    C   1.0     0.869458     0.219372     0.188811  Biso 1.000000     C
    C   1.0     0.364605     0.161921     0.136086  Biso 1.000000     C
    C   1.0     0.869463     0.161800     0.136226  Biso 1.000000     C
    C   1.0     0.428897     0.940715     0.131103  Biso 1.000000     C
    C   1.0     0.933802     0.940681     0.131159  Biso 1.000000     C
    C   1.0     0.484508     0.936251     0.176537  Biso 1.000000     C
    C   1.0     0.989392     0.936210     0.176609  Biso 1.000000     C
    C   1.0     0.470972     0.887262     0.226568  Biso 1.000000     C
    C   1.0     0.975805     0.887323     0.226667  Biso 1.000000     C
    C   1.0     0.016092     0.888144     0.270895  Biso 1.000000     C
    C   1.0     0.521048     0.888065     0.270781  Biso 1.000000     C
    C   1.0     0.080674     0.938707     0.266195  Biso 1.000000     C
    C   1.0     0.585596     0.938719     0.266097  Biso 1.000000     C
    C   1.0     0.094572     0.985395     0.215362  Biso 1.000000     C
    C   1.0     0.599439     0.985519     0.215292  Biso 1.000000     C
    C   1.0     0.044995     0.984826     0.171076  Biso 1.000000     C
    C   1.0     0.549849     0.984963     0.171017  Biso 1.000000     C
    C   1.0     0.134572     0.952219     0.315031  Biso 1.000000     C
    C   1.0     0.639512     0.952211     0.314923  Biso 1.000000     C
    C   1.0     0.125883     0.038203     0.350625  Biso 1.000000     C
    C   1.0     0.630825     0.038176     0.350542  Biso 1.000000     C
    C   1.0     0.062965     0.094226     0.350807  Biso 1.000000     C
    C   1.0     0.567915     0.094217     0.350719  Biso 1.000000     C
    C   1.0     0.056560     0.184841     0.385043  Biso 1.000000     C
    C   1.0     0.561500     0.184801     0.384984  Biso 1.000000     C
    C   1.0     0.112861     0.221459     0.419910  Biso 1.000000     C
    C   1.0     0.617784     0.221378     0.419884  Biso 1.000000     C
    C   1.0     0.176138     0.165825     0.419561  Biso 1.000000     C
    C   1.0     0.681053     0.165725     0.419540  Biso 1.000000     C
    C   1.0     0.182427     0.075718     0.385338  Biso 1.000000     C
    C   1.0     0.687351     0.075644     0.385292  Biso 1.000000     C
    C   1.0     0.106556     0.318197     0.457791  Biso 1.000000     C
    C   1.0     0.611463     0.318103     0.457780  Biso 1.000000     C
    C   1.0     0.137954     0.865081     0.353591  Biso 1.000000     C
    C   1.0     0.642896     0.865057     0.353472  Biso 1.000000     C
    C   1.0     0.192063     0.793134     0.345512  Biso 1.000000     C
    C   1.0     0.697009     0.793112     0.345409  Biso 1.000000     C
    C   1.0     0.197614     0.713828     0.380896  Biso 1.000000     C
    C   1.0     0.702541     0.713798     0.380793  Biso 1.000000     C
    C   1.0     0.147559     0.703607     0.424699  Biso 1.000000     C
    C   1.0     0.652458     0.703570     0.424573  Biso 1.000000     C
    C   1.0     0.092831     0.774905     0.432730  Biso 1.000000     C
    C   1.0     0.597726     0.774865     0.432584  Biso 1.000000     C
    C   1.0     0.088750     0.855316     0.398148  Biso 1.000000     C
    C   1.0     0.593668     0.855283     0.398010  Biso 1.000000     C
    C   1.0     0.151570     0.619916     0.463361  Biso 1.000000     C
    C   1.0     0.656417     0.619896     0.463253  Biso 1.000000     C
    C   1.0     0.247140     0.388416     0.355926  Biso 1.000000     C
    C   1.0     0.752070     0.388409     0.356052  Biso 1.000000     C
    C   1.0     0.242852     0.331991     0.302970  Biso 1.000000     C
    C   1.0     0.747765     0.331914     0.303120  Biso 1.000000     C
    C   1.0     0.303166     0.281027     0.280548  Biso 1.000000     C
    C   1.0     0.808080     0.280964     0.280692  Biso 1.000000     C
    C   1.0     0.364578     0.286254     0.314895  Biso 1.000000     C
    C   1.0     0.869514     0.286272     0.315012  Biso 1.000000     C
    C   1.0     0.364495     0.343670     0.367533  Biso 1.000000     C
    C   1.0     0.869448     0.343748     0.367630  Biso 1.000000     C
    N   1.0     0.196760     0.900091     0.891481  Biso 1.000000     N
    N   1.0     0.701789     0.900001     0.891423  Biso 1.000000     N
    N   1.0     0.197260     0.613548     0.620142  Biso 1.000000     N
    N   1.0     0.702186     0.613528     0.620064  Biso 1.000000     N
    N   1.0     0.307374     0.109144     0.116214  Biso 1.000000     N
    N   1.0     0.812221     0.109035     0.116366  Biso 1.000000     N
    N   1.0     0.307098     0.395964     0.387494  Biso 1.000000     N
    N   1.0     0.812046     0.396027     0.387593  Biso 1.000000     N
    O   1.0     0.058707     0.474488     0.588806  Biso 1.000000     O
    O   1.0     0.563636     0.474514     0.588734  Biso 1.000000     O
    O   1.0     0.136691     0.397695     0.642539  Biso 1.000000     O
    O   1.0     0.641553     0.397712     0.642523  Biso 1.000000     O
    O   1.0     0.299398     0.049058     0.964725  Biso 1.000000     O
    O   1.0     0.804266     0.049036     0.964744  Biso 1.000000     O
    O   1.0     0.403117     0.099028     0.000000  Biso 1.000000     O
    O   1.0     0.907903     0.098974     0.000000  Biso 1.000000     O
    O   1.0     0.453433     0.874426     0.956572  Biso 1.000000     O
    O   1.0     0.958335     0.874557     0.956595  Biso 1.000000     O
    O   1.0     0.344734     0.843487     0.994677  Biso 1.000000     O
    O   1.0     0.849640     0.843560     0.994697  Biso 1.000000     O
    O   1.0     0.058934     0.024740     0.923181  Biso 1.000000     O
    O   1.0     0.563861     0.024516     0.923075  Biso 1.000000     O
    O   1.0     0.136944     0.100277     0.868792  Biso 1.000000     O
    O   1.0     0.641855     0.100261     0.868771  Biso 1.000000     O
    O   1.0     0.298443     0.448942     0.546507  Biso 1.000000     O
    O   1.0     0.803366     0.448974     0.546495  Biso 1.000000     O
    O   1.0     0.401886     0.399192     0.508166  Biso 1.000000     O
    O   1.0     0.906839     0.399228     0.508199  Biso 1.000000     O
    O   1.0     0.451350     0.635952     0.556717  Biso 1.000000     O
    O   1.0     0.956249     0.636061     0.556744  Biso 1.000000     O
    O   1.0     0.344506     0.670192     0.516415  Biso 1.000000     O
    O   1.0     0.849401     0.670312     0.516451  Biso 1.000000     O
    O   1.0     0.445442     0.537218     0.419967  Biso 1.000000     O
    O   1.0     0.950372     0.537633     0.420086  Biso 1.000000     O
    O   1.0     0.367170     0.610998     0.365036  Biso 1.000000     O
    O   1.0     0.872031     0.610990     0.365031  Biso 1.000000     O
    O   1.0     0.205502     0.959589     0.042881  Biso 1.000000     O
    O   1.0     0.710387     0.959493     0.042895  Biso 1.000000     O
    O   1.0     0.101990     0.909672     0.004747  Biso 1.000000     O
    O   1.0     0.606902     0.909581     0.004715  Biso 1.000000     O
    O   1.0     0.052877     0.131546     0.053016  Biso 1.000000     O
    O   1.0     0.557770     0.131370     0.052989  Biso 1.000000     O
    O   1.0     0.159701     0.165863     0.012729  Biso 1.000000     O
    O   1.0     0.664603     0.165676     0.012712  Biso 1.000000     O
    O   1.0     0.445157     0.985073     0.085041  Biso 1.000000     O
    O   1.0     0.950076     0.985059     0.085110  Biso 1.000000     O
    O   1.0     0.367160     0.908345     0.138802  Biso 1.000000     O
    O   1.0     0.872063     0.908289     0.138831  Biso 1.000000     O
    O   1.0     0.204881     0.559671     0.461038  Biso 1.000000     O
    O   1.0     0.709764     0.559703     0.461031  Biso 1.000000     O
    O   1.0     0.101489     0.609629     0.499512  Biso 1.000000     O
    O   1.0     0.606255     0.609592     0.499319  Biso 1.000000     O
    O   1.0     0.050299     0.370278     0.452887  Biso 1.000000     O
    O   1.0     0.555184     0.370141     0.452897  Biso 1.000000     O
    O   1.0     0.158945     0.339223     0.491076  Biso 1.000000     O
    O   1.0     0.663862     0.339168     0.491050  Biso 1.000000     O
   Cd   1.0     0.175749     0.021371     0.961179  Biso 1.000000    Cd
   Cd   1.0     0.680652     0.021222     0.961136  Biso 1.000000    Cd
   Cd   1.0     0.175185     0.477128     0.550382  Biso 1.000000    Cd
   Cd   1.0     0.680079     0.477125     0.550311  Biso 1.000000    Cd
   Cd   1.0     0.328773     0.987631     0.046546  Biso 1.000000    Cd
   Cd   1.0     0.833640     0.987601     0.046635  Biso 1.000000    Cd
   Cd   1.0     0.328484     0.531987     0.457447  Biso 1.000000    Cd
   Cd   1.0     0.833392     0.532116     0.457489  Biso 1.000000    Cd
   Cd   1.0    -0.000688     0.504354     0.504344  Biso 1.000000    Cd
   Cd   1.0     0.504156     0.504257     0.504288  Biso 1.000000    Cd
   Cd   1.0     0.000392    -0.000355     0.000570  Biso 1.000000    Cd
   Cd   1.0     0.505110    -0.006519     0.000000  Biso 1.000000    Cd
