#======================================================================

# CRYSTAL DATA

#----------------------------------------------------------------------

data_VESTA_phase_1


_pd_phase_name                         MOF
_cell_length_a                         11.44600
_cell_length_b                         21.12800
_cell_length_c                         16.26500
_cell_angle_alpha                      89.97000
_cell_angle_beta                       90.03100
_cell_angle_gamma                      92.44500
_symmetry_space_group_name_H-M         "P 1"
_symmetry_Int_Tables_number            1

loop_
_symmetry_equiv_pos_as_xyz
   "x, y, z"

loop_
   _atom_site_label
   _atom_site_occupancy
   _atom_site_fract_x
   _atom_site_fract_y
   _atom_site_fract_z
   _atom_site_adp_type
   _atom_site_B_iso_or_equiv
   _atom_site_type_symbol
    H   1.0     0.372400     0.107336     0.649006  Biso 1.000000     H
    H   1.0     0.372391     0.607326     0.649006  Biso 1.000000     H
    H   1.0     0.872405     0.107334     0.649006  Biso 1.000000     H
    H   1.0     0.872401     0.607326     0.649007  Biso 1.000000     H
    H   1.0     0.454067     0.041785     0.761046  Biso 1.000000     H
    H   1.0     0.454057     0.541775     0.761046  Biso 1.000000     H
    H   1.0     0.954071     0.041783     0.761046  Biso 1.000000     H
    H   1.0     0.954067     0.541775     0.761047  Biso 1.000000     H
    H   1.0     0.110167     0.165131     0.820822  Biso 1.000000     H
    H   1.0     0.110164     0.665126     0.820824  Biso 1.000000     H
    H   1.0     0.610182     0.165136     0.820825  Biso 1.000000     H
    H   1.0     0.610172     0.665125     0.820824  Biso 1.000000     H
    H   1.0     0.204418     0.098655     0.926888  Biso 1.000000     H
    H   1.0     0.204415     0.598650     0.926889  Biso 1.000000     H
    H   1.0     0.704432     0.098659     0.926890  Biso 1.000000     H
    H   1.0     0.704423     0.598649     0.926890  Biso 1.000000     H
    H   1.0     0.128254     0.143335     0.148514  Biso 1.000000     H
    H   1.0     0.128251     0.643329     0.148512  Biso 1.000000     H
    H   1.0     0.628267     0.143336     0.148513  Biso 1.000000     H
    H   1.0     0.628258     0.643325     0.148514  Biso 1.000000     H
    H   1.0     0.046510     0.208655     0.260614  Biso 1.000000     H
    H   1.0     0.046508     0.708650     0.260612  Biso 1.000000     H
    H   1.0     0.546521     0.208656     0.260613  Biso 1.000000     H
    H   1.0     0.546514     0.708646     0.260615  Biso 1.000000     H
    H   1.0     0.390694     0.085417     0.320368  Biso 1.000000     H
    H   1.0     0.390682     0.585406     0.320369  Biso 1.000000     H
    H   1.0     0.890697     0.085413     0.320370  Biso 1.000000     H
    H   1.0     0.890696     0.585407     0.320369  Biso 1.000000     H
    H   1.0     0.296290     0.151610     0.426507  Biso 1.000000     H
    H   1.0     0.296280     0.651600     0.426508  Biso 1.000000     H
    H   1.0     0.796293     0.151606     0.426509  Biso 1.000000     H
    H   1.0     0.796293     0.651600     0.426508  Biso 1.000000     H
    H   1.0     0.127590     0.392674     0.351071  Biso 1.000000     H
    H   1.0     0.127585     0.892665     0.351071  Biso 1.000000     H
    H   1.0     0.627598     0.392669     0.351067  Biso 1.000000     H
    H   1.0     0.627594     0.892666     0.351072  Biso 1.000000     H
    H   1.0     0.045925     0.458227     0.239031  Biso 1.000000     H
    H   1.0     0.045919     0.958218     0.239032  Biso 1.000000     H
    H   1.0     0.545931     0.458221     0.239027  Biso 1.000000     H
    H   1.0     0.545928     0.958218     0.239032  Biso 1.000000     H
    H   1.0     0.389804     0.334866     0.179248  Biso 1.000000     H
    H   1.0     0.389799     0.834858     0.179249  Biso 1.000000     H
    H   1.0     0.889816     0.334865     0.179247  Biso 1.000000     H
    H   1.0     0.889807     0.834858     0.179249  Biso 1.000000     H
    H   1.0     0.295553     0.401342     0.073183  Biso 1.000000     H
    H   1.0     0.295548     0.901334     0.073183  Biso 1.000000     H
    H   1.0     0.795564     0.401340     0.073180  Biso 1.000000     H
    H   1.0     0.795555     0.901333     0.073183  Biso 1.000000     H
    H   1.0     0.371729     0.356648     0.851562  Biso 1.000000     H
    H   1.0     0.371721     0.856639     0.851564  Biso 1.000000     H
    H   1.0     0.871741     0.356649     0.851561  Biso 1.000000     H
    H   1.0     0.871737     0.856642     0.851560  Biso 1.000000     H
    H   1.0     0.453472     0.291329     0.739459  Biso 1.000000     H
    H   1.0     0.453463     0.791319     0.739461  Biso 1.000000     H
    H   1.0     0.953484     0.291330     0.739458  Biso 1.000000     H
    H   1.0     0.953480     0.791323     0.739457  Biso 1.000000     H
    H   1.0     0.109293     0.414571     0.679710  Biso 1.000000     H
    H   1.0     0.109288     0.914563     0.679710  Biso 1.000000     H
    H   1.0     0.609301     0.414570     0.679710  Biso 1.000000     H
    H   1.0     0.609290     0.914558     0.679712  Biso 1.000000     H
    H   1.0     0.203696     0.348380     0.573568  Biso 1.000000     H
    H   1.0     0.203690     0.848372     0.573568  Biso 1.000000     H
    H   1.0     0.703704     0.348379     0.573567  Biso 1.000000     H
    H   1.0     0.703693     0.848368     0.573569  Biso 1.000000     H
    C   1.0     0.173406     0.176063     0.661428  Biso 1.000000     C
    C   1.0     0.173400     0.676055     0.661429  Biso 1.000000     C
    C   1.0     0.673417     0.176064     0.661429  Biso 1.000000     C
    C   1.0     0.673410     0.676055     0.661429  Biso 1.000000     C
    C   1.0     0.233264     0.141566     0.725455  Biso 1.000000     C
    C   1.0     0.233258     0.641558     0.725456  Biso 1.000000     C
    C   1.0     0.733275     0.141567     0.725457  Biso 1.000000     C
    C   1.0     0.733268     0.641558     0.725456  Biso 1.000000     C
    C   1.0     0.332403     0.106714     0.709635  Biso 1.000000     C
    C   1.0     0.332395     0.606705     0.709635  Biso 1.000000     C
    C   1.0     0.832410     0.106713     0.709636  Biso 1.000000     C
    C   1.0     0.832405     0.606705     0.709636  Biso 1.000000     C
    C   1.0     0.378479     0.070360     0.772000  Biso 1.000000     C
    C   1.0     0.378471     0.570351     0.772000  Biso 1.000000     C
    C   1.0     0.878486     0.070359     0.772000  Biso 1.000000     C
    C   1.0     0.878481     0.570351     0.772001  Biso 1.000000     C
    C   1.0     0.187189     0.138990     0.805619  Biso 1.000000     C
    C   1.0     0.187185     0.638984     0.805620  Biso 1.000000     C
    C   1.0     0.687202     0.138993     0.805621  Biso 1.000000     C
    C   1.0     0.687194     0.638983     0.805620  Biso 1.000000     C
    C   1.0     0.239090     0.101979     0.864511  Biso 1.000000     C
    C   1.0     0.239086     0.601973     0.864513  Biso 1.000000     C
    C   1.0     0.739103     0.101982     0.864513  Biso 1.000000     C
    C   1.0     0.739095     0.601972     0.864513  Biso 1.000000     C
    C   1.0     0.327051     0.074383     0.161083  Biso 1.000000     C
    C   1.0     0.327044     0.574374     0.161083  Biso 1.000000     C
    C   1.0     0.827061     0.074382     0.161084  Biso 1.000000     C
    C   1.0     0.827054     0.574374     0.161084  Biso 1.000000     C
    C   1.0     0.267367     0.108969     0.225025  Biso 1.000000     C
    C   1.0     0.267360     0.608961     0.225025  Biso 1.000000     C
    C   1.0     0.767375     0.108968     0.225026  Biso 1.000000     C
    C   1.0     0.767370     0.608959     0.225026  Biso 1.000000     C
    C   1.0     0.168265     0.143868     0.209169  Biso 1.000000     C
    C   1.0     0.168260     0.643861     0.209167  Biso 1.000000     C
    C   1.0     0.668276     0.143867     0.209168  Biso 1.000000     C
    C   1.0     0.668268     0.643858     0.209169  Biso 1.000000     C
    C   1.0     0.122120     0.180078     0.271575  Biso 1.000000     C
    C   1.0     0.122116     0.680071     0.271573  Biso 1.000000     C
    C   1.0     0.622130     0.180077     0.271574  Biso 1.000000     C
    C   1.0     0.622124     0.680068     0.271575  Biso 1.000000     C
    C   1.0     0.313583     0.111522     0.305180  Biso 1.000000     C
    C   1.0     0.313574     0.611512     0.305181  Biso 1.000000     C
    C   1.0     0.813589     0.111519     0.305182  Biso 1.000000     C
    C   1.0     0.813586     0.611512     0.305181  Biso 1.000000     C
    C   1.0     0.261588     0.148374     0.364112  Biso 1.000000     C
    C   1.0     0.261579     0.648364     0.364112  Biso 1.000000     C
    C   1.0     0.761592     0.148370     0.364114  Biso 1.000000     C
    C   1.0     0.761590     0.648364     0.364113  Biso 1.000000     C
    C   1.0     0.326573     0.323937     0.338641  Biso 1.000000     C
    C   1.0     0.326568     0.823929     0.338642  Biso 1.000000     C
    C   1.0     0.826584     0.323935     0.338639  Biso 1.000000     C
    C   1.0     0.826577     0.823929     0.338642  Biso 1.000000     C
    C   1.0     0.266715     0.358437     0.274617  Biso 1.000000     C
    C   1.0     0.266710     0.858429     0.274618  Biso 1.000000     C
    C   1.0     0.766725     0.358434     0.274615  Biso 1.000000     C
    C   1.0     0.766718     0.858429     0.274618  Biso 1.000000     C
    C   1.0     0.167583     0.393293     0.290440  Biso 1.000000     C
    C   1.0     0.167578     0.893285     0.290441  Biso 1.000000     C
    C   1.0     0.667591     0.393289     0.290437  Biso 1.000000     C
    C   1.0     0.667586     0.893285     0.290441  Biso 1.000000     C
    C   1.0     0.121507     0.429648     0.228075  Biso 1.000000     C
    C   1.0     0.121502     0.929640     0.228076  Biso 1.000000     C
    C   1.0     0.621515     0.429644     0.228072  Biso 1.000000     C
    C   1.0     0.621510     0.929640     0.228076  Biso 1.000000     C
    C   1.0     0.312785     0.361010     0.194452  Biso 1.000000     C
    C   1.0     0.312780     0.861002     0.194453  Biso 1.000000     C
    C   1.0     0.812796     0.361008     0.194450  Biso 1.000000     C
    C   1.0     0.812788     0.861002     0.194453  Biso 1.000000     C
    C   1.0     0.260885     0.398021     0.135560  Biso 1.000000     C
    C   1.0     0.260879     0.898013     0.135561  Biso 1.000000     C
    C   1.0     0.760894     0.398018     0.135558  Biso 1.000000     C
    C   1.0     0.760887     0.898012     0.135561  Biso 1.000000     C
    C   1.0     0.172936     0.425606     0.838990  Biso 1.000000     C
    C   1.0     0.172929     0.925597     0.838990  Biso 1.000000     C
    C   1.0     0.672946     0.425606     0.838989  Biso 1.000000     C
    C   1.0     0.672939     0.925596     0.838990  Biso 1.000000     C
    C   1.0     0.232620     0.391017     0.775050  Biso 1.000000     C
    C   1.0     0.232613     0.891008     0.775051  Biso 1.000000     C
    C   1.0     0.732630     0.391017     0.775049  Biso 1.000000     C
    C   1.0     0.732622     0.891007     0.775051  Biso 1.000000     C
    C   1.0     0.331719     0.356117     0.790907  Biso 1.000000     C
    C   1.0     0.331711     0.856107     0.790908  Biso 1.000000     C
    C   1.0     0.831730     0.356117     0.790906  Biso 1.000000     C
    C   1.0     0.831725     0.856109     0.790906  Biso 1.000000     C
    C   1.0     0.377863     0.319908     0.728499  Biso 1.000000     C
    C   1.0     0.377856     0.819898     0.728501  Biso 1.000000     C
    C   1.0     0.877875     0.319908     0.728498  Biso 1.000000     C
    C   1.0     0.877869     0.819901     0.728498  Biso 1.000000     C
    C   1.0     0.186403     0.388465     0.694895  Biso 1.000000     C
    C   1.0     0.186397     0.888457     0.694896  Biso 1.000000     C
    C   1.0     0.686412     0.388464     0.694895  Biso 1.000000     C
    C   1.0     0.686402     0.888454     0.694897  Biso 1.000000     C
    C   1.0     0.238398     0.351615     0.635962  Biso 1.000000     C
    C   1.0     0.238392     0.851606     0.635963  Biso 1.000000     C
    C   1.0     0.738407     0.351614     0.635962  Biso 1.000000     C
    C   1.0     0.738398     0.851604     0.635963  Biso 1.000000     C
    N   1.0     0.218427     0.195841     0.587983  Biso 1.000000     N
    N   1.0     0.218421     0.695832     0.587983  Biso 1.000000     N
    N   1.0     0.718437     0.195841     0.587984  Biso 1.000000     N
    N   1.0     0.718431     0.695832     0.587984  Biso 1.000000     N
    N   1.0     0.127112     0.219979     0.547237  Biso 1.000000     N
    N   1.0     0.127106     0.719970     0.547237  Biso 1.000000     N
    N   1.0     0.627122     0.219979     0.547237  Biso 1.000000     N
    N   1.0     0.627116     0.719970     0.547237  Biso 1.000000     N
    N   1.0     0.031745     0.215129     0.595724  Biso 1.000000     N
    N   1.0     0.031739     0.715121     0.595724  Biso 1.000000     N
    N   1.0     0.531756     0.215131     0.595725  Biso 1.000000     N
    N   1.0     0.531749     0.715121     0.595725  Biso 1.000000     N
    N   1.0     0.059211     0.188510     0.667621  Biso 1.000000     N
    N   1.0     0.059205     0.688502     0.667622  Biso 1.000000     N
    N   1.0     0.559223     0.188513     0.667623  Biso 1.000000     N
    N   1.0     0.559216     0.688503     0.667622  Biso 1.000000     N
    N   1.0     0.332987     0.066947     0.848715  Biso 1.000000     N
    N   1.0     0.332980     0.566939     0.848715  Biso 1.000000     N
    N   1.0     0.832996     0.066948     0.848716  Biso 1.000000     N
    N   1.0     0.832990     0.566939     0.848716  Biso 1.000000     N
    N   1.0     0.281722     0.054232     0.087888  Biso 1.000000     N
    N   1.0     0.281715     0.554223     0.087888  Biso 1.000000     N
    N   1.0     0.781732     0.054231     0.087888  Biso 1.000000     N
    N   1.0     0.781724     0.554221     0.087889  Biso 1.000000     N
    N   1.0     0.372938     0.029968     0.047253  Biso 1.000000     N
    N   1.0     0.372931     0.529959     0.047254  Biso 1.000000     N
    N   1.0     0.872949     0.029968     0.047254  Biso 1.000000     N
    N   1.0     0.872941     0.529958     0.047254  Biso 1.000000     N
    N   1.0     0.468571     0.035200     0.095494  Biso 1.000000     N
    N   1.0     0.468564     0.535191     0.095495  Biso 1.000000     N
    N   1.0     0.968582     0.035200     0.095495  Biso 1.000000     N
    N   1.0     0.968575     0.535191     0.095495  Biso 1.000000     N
    N   1.0     0.441338     0.062095     0.167202  Biso 1.000000     N
    N   1.0     0.441331     0.562085     0.167203  Biso 1.000000     N
    N   1.0     0.941348     0.062094     0.167203  Biso 1.000000     N
    N   1.0     0.941342     0.562086     0.167203  Biso 1.000000     N
    N   1.0     0.167538     0.183328     0.348349  Biso 1.000000     N
    N   1.0     0.167532     0.683320     0.348348  Biso 1.000000     N
    N   1.0     0.667545     0.183326     0.348349  Biso 1.000000     N
    N   1.0     0.667541     0.683319     0.348350  Biso 1.000000     N
    N   1.0     0.281554     0.304156     0.412085  Biso 1.000000     N
    N   1.0     0.281548     0.804147     0.412085  Biso 1.000000     N
    N   1.0     0.781564     0.304153     0.412083  Biso 1.000000     N
    N   1.0     0.781557     0.804146     0.412085  Biso 1.000000     N
    N   1.0     0.372869     0.280015     0.452827  Biso 1.000000     N
    N   1.0     0.372864     0.780006     0.452828  Biso 1.000000     N
    N   1.0     0.872880     0.280014     0.452826  Biso 1.000000     N
    N   1.0     0.872874     0.780006     0.452827  Biso 1.000000     N
    N   1.0     0.468236     0.284866     0.404339  Biso 1.000000     N
    N   1.0     0.468230     0.784857     0.404340  Biso 1.000000     N
    N   1.0     0.968247     0.284866     0.404339  Biso 1.000000     N
    N   1.0     0.968240     0.784858     0.404340  Biso 1.000000     N
    N   1.0     0.440767     0.311489     0.332445  Biso 1.000000     N
    N   1.0     0.440762     0.811481     0.332446  Biso 1.000000     N
    N   1.0     0.940779     0.311488     0.332444  Biso 1.000000     N
    N   1.0     0.940772     0.811482     0.332446  Biso 1.000000     N
    N   1.0     0.166993     0.433056     0.151358  Biso 1.000000     N
    N   1.0     0.166987     0.933048     0.151359  Biso 1.000000     N
    N   1.0     0.667002     0.433053     0.151356  Biso 1.000000     N
    N   1.0     0.666995     0.933047     0.151359  Biso 1.000000     N
    N   1.0     0.218267     0.445764     0.912182  Biso 1.000000     N
    N   1.0     0.218259     0.945755     0.912183  Biso 1.000000     N
    N   1.0     0.718277     0.445763     0.912181  Biso 1.000000     N
    N   1.0     0.718270     0.945755     0.912182  Biso 1.000000     N
    N   1.0     0.127051     0.470031     0.952813  Biso 1.000000     N
    N   1.0     0.127043     0.970022     0.952813  Biso 1.000000     N
    N   1.0     0.627061     0.470031     0.952812  Biso 1.000000     N
    N   1.0     0.627054     0.970022     0.952813  Biso 1.000000     N
    N   1.0     0.031416     0.464795     0.904572  Biso 1.000000     N
    N   1.0     0.031409     0.964787     0.904572  Biso 1.000000     N
    N   1.0     0.531426     0.464795     0.904572  Biso 1.000000     N
    N   1.0     0.531419     0.964786     0.904573  Biso 1.000000     N
    N   1.0     0.058649     0.437894     0.832869  Biso 1.000000     N
    N   1.0     0.058643     0.937886     0.832869  Biso 1.000000     N
    N   1.0     0.558659     0.437894     0.832868  Biso 1.000000     N
    N   1.0     0.558652     0.937884     0.832870  Biso 1.000000     N
    N   1.0     0.332448     0.316660     0.651724  Biso 1.000000     N
    N   1.0     0.332441     0.816651     0.651725  Biso 1.000000     N
    N   1.0     0.832458     0.316660     0.651723  Biso 1.000000     N
    N   1.0     0.832451     0.816651     0.651724  Biso 1.000000     N
   Cu   1.0     0.375798     0.247471     0.569327  Biso 1.000000    Cu
   Cu   1.0     0.375791     0.747462     0.569327  Biso 1.000000    Cu
   Cu   1.0     0.875809     0.247471     0.569326  Biso 1.000000    Cu
   Cu   1.0     0.875802     0.747462     0.569327  Biso 1.000000    Cu
   Cu   1.0     0.124296     0.002600     0.069253  Biso 1.000000    Cu
   Cu   1.0     0.124289     0.502592     0.069252  Biso 1.000000    Cu
   Cu   1.0     0.624306     0.002600     0.069253  Biso 1.000000    Cu
   Cu   1.0     0.624299     0.502591     0.069252  Biso 1.000000    Cu
   Cu   1.0     0.124186     0.252525     0.430728  Biso 1.000000    Cu
   Cu   1.0     0.124179     0.752516     0.430729  Biso 1.000000    Cu
   Cu   1.0     0.624195     0.252524     0.430728  Biso 1.000000    Cu
   Cu   1.0     0.624189     0.752516     0.430729  Biso 1.000000    Cu
   Cu   1.0     0.375693     0.497398     0.930804  Biso 1.000000    Cu
   Cu   1.0     0.375686     0.997390     0.930804  Biso 1.000000    Cu
   Cu   1.0     0.875703     0.497398     0.930804  Biso 1.000000    Cu
   Cu   1.0     0.875696     0.997390     0.930804  Biso 1.000000    Cu
