#======================================================================

# CRYSTAL DATA

#----------------------------------------------------------------------

data_VESTA_phase_1


_pd_phase_name                         MOF
_cell_length_a                         13.96800
_cell_length_b                         15.51200
_cell_length_c                         19.52300
_cell_angle_alpha                      90.00000
_cell_angle_beta                       102.06100
_cell_angle_gamma                      90.00000
_symmetry_space_group_name_H-M         "P 1"
_symmetry_Int_Tables_number            1

loop_
_symmetry_equiv_pos_as_xyz
   "x, y, z"

loop_
   _atom_site_label
   _atom_site_occupancy
   _atom_site_fract_x
   _atom_site_fract_y
   _atom_site_fract_z
   _atom_site_adp_type
   _atom_site_B_iso_or_equiv
   _atom_site_type_symbol
    H   1.0     0.006096     0.052852     0.137253  Biso 1.000000     H
    H   1.0     0.006098     0.052844     0.637245  Biso 1.000000     H
    H   1.0     0.006093     0.552849     0.137249  Biso 1.000000     H
    H   1.0     0.006093     0.552848     0.637247  Biso 1.000000     H
    H   1.0     0.506227     0.052853     0.137281  Biso 1.000000     H
    H   1.0     0.506229     0.052848     0.637278  Biso 1.000000     H
    H   1.0     0.506226     0.552852     0.137286  Biso 1.000000     H
    H   1.0     0.506230     0.552840     0.637277  Biso 1.000000     H
    H   1.0     0.329789     0.056597     0.097345  Biso 1.000000     H
    H   1.0     0.329790     0.056591     0.597338  Biso 1.000000     H
    H   1.0     0.329787     0.556599     0.097348  Biso 1.000000     H
    H   1.0     0.329792     0.556588     0.597341  Biso 1.000000     H
    H   1.0     0.829642     0.056594     0.097373  Biso 1.000000     H
    H   1.0     0.829646     0.056589     0.597367  Biso 1.000000     H
    H   1.0     0.829640     0.556590     0.097373  Biso 1.000000     H
    H   1.0     0.829639     0.556587     0.597366  Biso 1.000000     H
    H   1.0     0.398171     0.056986     0.227662  Biso 1.000000     H
    H   1.0     0.398174     0.056978     0.727655  Biso 1.000000     H
    H   1.0     0.398170     0.556985     0.227664  Biso 1.000000     H
    H   1.0     0.398173     0.556978     0.727657  Biso 1.000000     H
    H   1.0     0.898077     0.056983     0.227683  Biso 1.000000     H
    H   1.0     0.898078     0.056977     0.727677  Biso 1.000000     H
    H   1.0     0.898075     0.556983     0.227683  Biso 1.000000     H
    H   1.0     0.898074     0.556978     0.727676  Biso 1.000000     H
    H   1.0     0.215360     0.056715     0.184588  Biso 1.000000     H
    H   1.0     0.215363     0.056707     0.684581  Biso 1.000000     H
    H   1.0     0.215358     0.556715     0.184590  Biso 1.000000     H
    H   1.0     0.215361     0.556707     0.684583  Biso 1.000000     H
    H   1.0     0.715265     0.056714     0.184630  Biso 1.000000     H
    H   1.0     0.715266     0.056711     0.684624  Biso 1.000000     H
    H   1.0     0.715264     0.556715     0.184631  Biso 1.000000     H
    H   1.0     0.715263     0.556708     0.684624  Biso 1.000000     H
    H   1.0     0.493739     0.052849     0.362691  Biso 1.000000     H
    H   1.0     0.493743     0.052845     0.862694  Biso 1.000000     H
    H   1.0     0.493734     0.552843     0.362694  Biso 1.000000     H
    H   1.0     0.493740     0.552845     0.862689  Biso 1.000000     H
    H   1.0     0.993862     0.052846     0.362720  Biso 1.000000     H
    H   1.0     0.993867     0.052844     0.862709  Biso 1.000000     H
    H   1.0     0.993860     0.552853     0.362716  Biso 1.000000     H
    H   1.0     0.993862     0.552841     0.862713  Biso 1.000000     H
    H   1.0     0.170310     0.056591     0.402621  Biso 1.000000     H
    H   1.0     0.170317     0.056587     0.902613  Biso 1.000000     H
    H   1.0     0.170309     0.556599     0.402621  Biso 1.000000     H
    H   1.0     0.170311     0.556584     0.902614  Biso 1.000000     H
    H   1.0     0.670174     0.056592     0.402652  Biso 1.000000     H
    H   1.0     0.670178     0.056589     0.902646  Biso 1.000000     H
    H   1.0     0.670168     0.556593     0.402652  Biso 1.000000     H
    H   1.0     0.670176     0.556593     0.902645  Biso 1.000000     H
    H   1.0     0.101897     0.056983     0.272308  Biso 1.000000     H
    H   1.0     0.101901     0.056976     0.772299  Biso 1.000000     H
    H   1.0     0.101896     0.556983     0.272308  Biso 1.000000     H
    H   1.0     0.101898     0.556975     0.772301  Biso 1.000000     H
    H   1.0     0.601805     0.056983     0.272332  Biso 1.000000     H
    H   1.0     0.601806     0.056979     0.772327  Biso 1.000000     H
    H   1.0     0.601802     0.556983     0.272333  Biso 1.000000     H
    H   1.0     0.601804     0.556977     0.772326  Biso 1.000000     H
    H   1.0     0.284707     0.056716     0.315366  Biso 1.000000     H
    H   1.0     0.284711     0.056708     0.815359  Biso 1.000000     H
    H   1.0     0.284706     0.556718     0.315368  Biso 1.000000     H
    H   1.0     0.284708     0.556709     0.815361  Biso 1.000000     H
    H   1.0     0.784616     0.056712     0.315408  Biso 1.000000     H
    H   1.0     0.784618     0.056708     0.815402  Biso 1.000000     H
    H   1.0     0.784613     0.556714     0.315409  Biso 1.000000     H
    H   1.0     0.784615     0.556709     0.815401  Biso 1.000000     H
    H   1.0     0.493737     0.447143     0.362693  Biso 1.000000     H
    H   1.0     0.493742     0.447145     0.862694  Biso 1.000000     H
    H   1.0     0.493737     0.947147     0.362694  Biso 1.000000     H
    H   1.0     0.493742     0.947143     0.862689  Biso 1.000000     H
    H   1.0     0.993863     0.447149     0.362721  Biso 1.000000     H
    H   1.0     0.993863     0.447137     0.862711  Biso 1.000000     H
    H   1.0     0.993864     0.947140     0.362715  Biso 1.000000     H
    H   1.0     0.993866     0.947138     0.862714  Biso 1.000000     H
    H   1.0     0.170311     0.443410     0.402624  Biso 1.000000     H
    H   1.0     0.170312     0.443395     0.902613  Biso 1.000000     H
    H   1.0     0.170313     0.943400     0.402619  Biso 1.000000     H
    H   1.0     0.170314     0.943395     0.902613  Biso 1.000000     H
    H   1.0     0.670173     0.443403     0.402652  Biso 1.000000     H
    H   1.0     0.670176     0.443402     0.902648  Biso 1.000000     H
    H   1.0     0.670171     0.943399     0.402651  Biso 1.000000     H
    H   1.0     0.670178     0.943397     0.902646  Biso 1.000000     H
    H   1.0     0.101898     0.443015     0.272311  Biso 1.000000     H
    H   1.0     0.101899     0.443007     0.772300  Biso 1.000000     H
    H   1.0     0.101898     0.943013     0.272306  Biso 1.000000     H
    H   1.0     0.101901     0.943006     0.772299  Biso 1.000000     H
    H   1.0     0.601803     0.443013     0.272332  Biso 1.000000     H
    H   1.0     0.601805     0.443008     0.772329  Biso 1.000000     H
    H   1.0     0.601804     0.943012     0.272331  Biso 1.000000     H
    H   1.0     0.601805     0.943008     0.772326  Biso 1.000000     H
    H   1.0     0.284708     0.443285     0.315368  Biso 1.000000     H
    H   1.0     0.284709     0.443276     0.815361  Biso 1.000000     H
    H   1.0     0.284707     0.943281     0.315365  Biso 1.000000     H
    H   1.0     0.284711     0.943273     0.815358  Biso 1.000000     H
    H   1.0     0.784615     0.443285     0.315410  Biso 1.000000     H
    H   1.0     0.784616     0.443280     0.815403  Biso 1.000000     H
    H   1.0     0.784616     0.943282     0.315408  Biso 1.000000     H
    H   1.0     0.784616     0.943277     0.815401  Biso 1.000000     H
    H   1.0     0.006093     0.447144     0.137253  Biso 1.000000     H
    H   1.0     0.006095     0.447143     0.637243  Biso 1.000000     H
    H   1.0     0.006096     0.947145     0.137248  Biso 1.000000     H
    H   1.0     0.006095     0.947137     0.637245  Biso 1.000000     H
    H   1.0     0.506224     0.447150     0.137283  Biso 1.000000     H
    H   1.0     0.506227     0.447139     0.637279  Biso 1.000000     H
    H   1.0     0.506227     0.947149     0.137286  Biso 1.000000     H
    H   1.0     0.506229     0.947144     0.637272  Biso 1.000000     H
    H   1.0     0.329786     0.443408     0.097346  Biso 1.000000     H
    H   1.0     0.329789     0.443398     0.597341  Biso 1.000000     H
    H   1.0     0.329788     0.943404     0.097345  Biso 1.000000     H
    H   1.0     0.329792     0.943399     0.597337  Biso 1.000000     H
    H   1.0     0.829640     0.443400     0.097375  Biso 1.000000     H
    H   1.0     0.829643     0.443398     0.597367  Biso 1.000000     H
    H   1.0     0.829644     0.943402     0.097373  Biso 1.000000     H
    H   1.0     0.829642     0.943398     0.597366  Biso 1.000000     H
    H   1.0     0.398170     0.443016     0.227663  Biso 1.000000     H
    H   1.0     0.398173     0.443008     0.727658  Biso 1.000000     H
    H   1.0     0.398171     0.943014     0.227662  Biso 1.000000     H
    H   1.0     0.398174     0.943007     0.727653  Biso 1.000000     H
    H   1.0     0.898075     0.443014     0.227685  Biso 1.000000     H
    H   1.0     0.898076     0.443010     0.727677  Biso 1.000000     H
    H   1.0     0.898077     0.943013     0.227683  Biso 1.000000     H
    H   1.0     0.898076     0.943006     0.727676  Biso 1.000000     H
    H   1.0     0.215358     0.443287     0.184590  Biso 1.000000     H
    H   1.0     0.215362     0.443278     0.684583  Biso 1.000000     H
    H   1.0     0.215359     0.943286     0.184587  Biso 1.000000     H
    H   1.0     0.215363     0.943278     0.684580  Biso 1.000000     H
    H   1.0     0.715263     0.443282     0.184632  Biso 1.000000     H
    H   1.0     0.715265     0.443275     0.684625  Biso 1.000000     H
    H   1.0     0.715266     0.943280     0.184630  Biso 1.000000     H
    H   1.0     0.715264     0.943277     0.684623  Biso 1.000000     H
    C   1.0     0.330508     0.334314     0.477053  Biso 1.000000     C
    C   1.0     0.330545     0.334310     0.977052  Biso 1.000000     C
    C   1.0     0.330523     0.834308     0.477050  Biso 1.000000     C
    C   1.0     0.330524     0.834304     0.977048  Biso 1.000000     C
    C   1.0     0.831039     0.334312     0.477063  Biso 1.000000     C
    C   1.0     0.831025     0.334307     0.977056  Biso 1.000000     C
    C   1.0     0.831009     0.834307     0.477063  Biso 1.000000     C
    C   1.0     0.831036     0.834308     0.977059  Biso 1.000000     C
    C   1.0     0.168841     0.334313     0.022898  Biso 1.000000     C
    C   1.0     0.168814     0.334311     0.522886  Biso 1.000000     C
    C   1.0     0.168820     0.834317     0.022898  Biso 1.000000     C
    C   1.0     0.168838     0.834316     0.522893  Biso 1.000000     C
    C   1.0     0.669331     0.334316     0.022917  Biso 1.000000     C
    C   1.0     0.669356     0.334311     0.522911  Biso 1.000000     C
    C   1.0     0.669347     0.834314     0.022926  Biso 1.000000     C
    C   1.0     0.669323     0.834313     0.522910  Biso 1.000000     C
    C   1.0     0.168840     0.165685     0.022897  Biso 1.000000     C
    C   1.0     0.168826     0.165678     0.522894  Biso 1.000000     C
    C   1.0     0.168814     0.665683     0.022893  Biso 1.000000     C
    C   1.0     0.168827     0.665683     0.522891  Biso 1.000000     C
    C   1.0     0.669339     0.165682     0.022925  Biso 1.000000     C
    C   1.0     0.669363     0.165680     0.522917  Biso 1.000000     C
    C   1.0     0.669341     0.665685     0.022919  Biso 1.000000     C
    C   1.0     0.669324     0.665679     0.522911  Biso 1.000000     C
    C   1.0     0.330518     0.165686     0.477056  Biso 1.000000     C
    C   1.0     0.330543     0.165679     0.977049  Biso 1.000000     C
    C   1.0     0.330517     0.665678     0.477054  Biso 1.000000     C
    C   1.0     0.330520     0.665680     0.977048  Biso 1.000000     C
    C   1.0     0.831043     0.165682     0.477068  Biso 1.000000     C
    C   1.0     0.831028     0.165682     0.977060  Biso 1.000000     C
    C   1.0     0.831004     0.665683     0.477062  Biso 1.000000     C
    C   1.0     0.831038     0.665679     0.977060  Biso 1.000000     C
    C   1.0     0.366967     0.000001     0.124469  Biso 1.000000     C
    C   1.0     0.366970    -0.000004     0.624461  Biso 1.000000     C
    C   1.0     0.366965     0.500003     0.124471  Biso 1.000000     C
    C   1.0     0.366969     0.499992     0.624465  Biso 1.000000     C
    C   1.0     0.866838    -0.000001     0.124488  Biso 1.000000     C
    C   1.0     0.866839    -0.000006     0.624482  Biso 1.000000     C
    C   1.0     0.866836     0.499996     0.124489  Biso 1.000000     C
    C   1.0     0.866836     0.499994     0.624482  Biso 1.000000     C
    C   1.0     0.359443     0.000001     0.201382  Biso 1.000000     C
    C   1.0     0.359446    -0.000006     0.701374  Biso 1.000000     C
    C   1.0     0.359441     0.500001     0.201384  Biso 1.000000     C
    C   1.0     0.359445     0.499993     0.701377  Biso 1.000000     C
    C   1.0     0.859342    -0.000001     0.201408  Biso 1.000000     C
    C   1.0     0.859342    -0.000007     0.701402  Biso 1.000000     C
    C   1.0     0.859339     0.499998     0.201409  Biso 1.000000     C
    C   1.0     0.859340     0.499994     0.701402  Biso 1.000000     C
    C   1.0     0.253662     0.000001     0.211416  Biso 1.000000     C
    C   1.0     0.253666    -0.000007     0.711409  Biso 1.000000     C
    C   1.0     0.253661     0.500001     0.211418  Biso 1.000000     C
    C   1.0     0.253664     0.499993     0.711411  Biso 1.000000     C
    C   1.0     0.753568    -0.000002     0.211456  Biso 1.000000     C
    C   1.0     0.753568    -0.000006     0.711450  Biso 1.000000     C
    C   1.0     0.753566     0.499999     0.211458  Biso 1.000000     C
    C   1.0     0.753566     0.499993     0.711451  Biso 1.000000     C
    C   1.0     0.133121    -0.000004     0.375502  Biso 1.000000     C
    C   1.0     0.133125    -0.000008     0.875495  Biso 1.000000     C
    C   1.0     0.133119     0.500003     0.375504  Biso 1.000000     C
    C   1.0     0.133121     0.499990     0.875496  Biso 1.000000     C
    C   1.0     0.632997    -0.000003     0.375525  Biso 1.000000     C
    C   1.0     0.633002    -0.000006     0.875521  Biso 1.000000     C
    C   1.0     0.632995     0.499997     0.375527  Biso 1.000000     C
    C   1.0     0.633000     0.499996     0.875521  Biso 1.000000     C
    C   1.0     0.140630    -0.000001     0.298584  Biso 1.000000     C
    C   1.0     0.140633    -0.000008     0.798577  Biso 1.000000     C
    C   1.0     0.140629     0.500000     0.298587  Biso 1.000000     C
    C   1.0     0.140631     0.499991     0.798579  Biso 1.000000     C
    C   1.0     0.640531    -0.000002     0.298614  Biso 1.000000     C
    C   1.0     0.640533    -0.000006     0.798608  Biso 1.000000     C
    C   1.0     0.640529     0.499998     0.298615  Biso 1.000000     C
    C   1.0     0.640531     0.499994     0.798609  Biso 1.000000     C
    C   1.0     0.246406    -0.000000     0.288540  Biso 1.000000     C
    C   1.0     0.246409    -0.000008     0.788533  Biso 1.000000     C
    C   1.0     0.246405     0.500001     0.288542  Biso 1.000000     C
    C   1.0     0.246407     0.499992     0.788535  Biso 1.000000     C
    C   1.0     0.746313    -0.000002     0.288581  Biso 1.000000     C
    C   1.0     0.746314    -0.000006     0.788574  Biso 1.000000     C
    C   1.0     0.746311     0.499999     0.288582  Biso 1.000000     C
    C   1.0     0.746313     0.499994     0.788575  Biso 1.000000     C
    N   1.0     0.381582     0.389051     0.463337  Biso 1.000000     N
    N   1.0     0.381603     0.389057     0.963330  Biso 1.000000     N
    N   1.0     0.381587     0.889055     0.463336  Biso 1.000000     N
    N   1.0     0.381596     0.889047     0.963338  Biso 1.000000     N
    N   1.0     0.881830     0.389116     0.463088  Biso 1.000000     N
    N   1.0     0.881828     0.389105     0.963088  Biso 1.000000     N
    N   1.0     0.881820     0.889103     0.463102  Biso 1.000000     N
    N   1.0     0.881836     0.889108     0.963089  Biso 1.000000     N
    N   1.0     0.118064     0.389121     0.036886  Biso 1.000000     N
    N   1.0     0.118059     0.389128     0.536885  Biso 1.000000     N
    N   1.0     0.118057     0.889130     0.036893  Biso 1.000000     N
    N   1.0     0.118065     0.889122     0.536887  Biso 1.000000     N
    N   1.0     0.618306     0.389074     0.036664  Biso 1.000000     N
    N   1.0     0.618317     0.389062     0.536650  Biso 1.000000     N
    N   1.0     0.618312     0.889071     0.036662  Biso 1.000000     N
    N   1.0     0.618303     0.889073     0.536660  Biso 1.000000     N
    N   1.0     0.118068     0.110873     0.036885  Biso 1.000000     N
    N   1.0     0.118059     0.110865     0.536885  Biso 1.000000     N
    N   1.0     0.118050     0.610871     0.036888  Biso 1.000000     N
    N   1.0     0.118056     0.610876     0.536887  Biso 1.000000     N
    N   1.0     0.618306     0.110925     0.036664  Biso 1.000000     N
    N   1.0     0.618321     0.110927     0.536650  Biso 1.000000     N
    N   1.0     0.618308     0.610932     0.036664  Biso 1.000000     N
    N   1.0     0.618296     0.610921     0.536656  Biso 1.000000     N
    N   1.0     0.381586     0.110945     0.463339  Biso 1.000000     N
    N   1.0     0.381607     0.110935     0.963330  Biso 1.000000     N
    N   1.0     0.381580     0.610932     0.463338  Biso 1.000000     N
    N   1.0     0.381587     0.610936     0.963332  Biso 1.000000     N
    N   1.0     0.881834     0.110880     0.463091  Biso 1.000000     N
    N   1.0     0.881832     0.110883     0.963092  Biso 1.000000     N
    N   1.0     0.881812     0.610886     0.463097  Biso 1.000000     N
    N   1.0     0.881827     0.610872     0.963087  Biso 1.000000     N
    N   1.0     0.468912     0.000000     0.113798  Biso 1.000000     N
    N   1.0     0.468914    -0.000001     0.613790  Biso 1.000000     N
    N   1.0     0.468910     0.500002     0.113799  Biso 1.000000     N
    N   1.0     0.468913     0.499990     0.613792  Biso 1.000000     N
    N   1.0     0.968756     0.000001     0.113785  Biso 1.000000     N
    N   1.0     0.968757    -0.000008     0.613780  Biso 1.000000     N
    N   1.0     0.968754     0.499995     0.113785  Biso 1.000000     N
    N   1.0     0.968754     0.499996     0.613779  Biso 1.000000     N
    N   1.0     0.031194    -0.000007     0.386192  Biso 1.000000     N
    N   1.0     0.031198    -0.000007     0.886185  Biso 1.000000     N
    N   1.0     0.031192     0.500003     0.386193  Biso 1.000000     N
    N   1.0     0.031194     0.499989     0.886186  Biso 1.000000     N
    N   1.0     0.531045    -0.000001     0.386187  Biso 1.000000     N
    N   1.0     0.531051    -0.000007     0.886184  Biso 1.000000     N
    N   1.0     0.531043     0.499994     0.386188  Biso 1.000000     N
    N   1.0     0.531049     0.499997     0.886184  Biso 1.000000     N
   Ni   1.0     0.249573     0.249999    -0.000106  Biso 1.000000    Ni
   Ni   1.0     0.249545     0.249997     0.499880  Biso 1.000000    Ni
   Ni   1.0     0.249554     0.749994     0.999876  Biso 1.000000    Ni
   Ni   1.0     0.249558     0.749996     0.499884  Biso 1.000000    Ni
   Ni   1.0     0.750272     0.249994     0.000000  Biso 1.000000    Ni
   Ni   1.0     0.750296     0.249997     0.500065  Biso 1.000000    Ni
   Ni   1.0     0.750275     0.749999     0.000067  Biso 1.000000    Ni
   Ni   1.0     0.750247     0.749996     0.500053  Biso 1.000000    Ni
   Cd   1.0    -0.000055     0.000005    -0.000016  Biso 1.000000    Cd
   Cd   1.0    -0.000051    -0.000010     0.499979  Biso 1.000000    Cd
   Cd   1.0    -0.000059     0.499993    -0.000016  Biso 1.000000    Cd
   Cd   1.0    -0.000056     0.500004     0.499979  Biso 1.000000    Cd
   Cd   1.0     0.499951    -0.000005    -0.000008  Biso 1.000000    Cd
   Cd   1.0     0.499951     0.000004     0.499982  Biso 1.000000    Cd
   Cd   1.0     0.499947     0.499988     0.499983  Biso 1.000000    Cd
   Cd   1.0     0.499947     0.500006    -0.000008  Biso 1.000000    Cd
