#======================================================================

# CRYSTAL DATA

#----------------------------------------------------------------------

data_VESTA_phase_1


_pd_phase_name                         MOF
_cell_length_a                         16.24300
_cell_length_b                         16.24500
_cell_length_c                         23.17500
_cell_angle_alpha                      73.29100
_cell_angle_beta                       73.07000
_cell_angle_gamma                      67.44000
_symmetry_space_group_name_H-M         "P 1"
_symmetry_Int_Tables_number            1

loop_
_symmetry_equiv_pos_as_xyz
   "x, y, z"

loop_
   _atom_site_label
   _atom_site_occupancy
   _atom_site_fract_x
   _atom_site_fract_y
   _atom_site_fract_z
   _atom_site_adp_type
   _atom_site_B_iso_or_equiv
   _atom_site_type_symbol
    H   1.0     0.221689     0.552793     0.564486  Biso 1.000000     H
    H   1.0     0.356222     0.507766     0.613676  Biso 1.000000     H
    H   1.0     0.374463     0.227293     0.648862  Biso 1.000000     H
    H   1.0     0.240341     0.273078     0.599883  Biso 1.000000     H
    H   1.0     0.599519     0.252071     0.692166  Biso 1.000000     H
    H   1.0     0.620308     0.149599     0.795073  Biso 1.000000     H
    H   1.0     0.331351     0.208982     0.852270  Biso 1.000000     H
    H   1.0     0.309470     0.311940     0.750862  Biso 1.000000     H
    H   1.0     0.098764     0.711189     0.403975  Biso 1.000000     H
    H   1.0     0.116374     0.859906     0.399724  Biso 1.000000     H
    H   1.0     0.906030     0.884404     0.565297  Biso 1.000000     H
    H   1.0     0.898858     0.735353     0.562120  Biso 1.000000     H
    H   1.0     0.074639    -0.009080     0.441047  Biso 1.000000     H
    H   1.0     0.447231     0.776141     0.937809  Biso 1.000000     H
    H   1.0     0.492098     0.641360     0.888571  Biso 1.000000     H
    H   1.0     0.773049     0.622799     0.852358  Biso 1.000000     H
    H   1.0     0.727414     0.757298     0.901272  Biso 1.000000     H
    H   1.0     0.748043     0.399158     0.807309  Biso 1.000000     H
    H   1.0     0.849630     0.379953     0.703552  Biso 1.000000     H
    H   1.0     0.788308     0.668857     0.648745  Biso 1.000000     H
    H   1.0     0.686224     0.689189     0.751023  Biso 1.000000     H
    H   1.0     0.287594     0.902034     0.096463  Biso 1.000000     H
    H   1.0     0.138930     0.884471     0.100462  Biso 1.000000     H
    H   1.0     0.116241     0.093432     0.934893  Biso 1.000000     H
    H   1.0     0.265205     0.100555     0.938282  Biso 1.000000     H
    H   1.0     0.000000     0.925583     0.058805  Biso 1.000000     H
    H   1.0     0.778224     0.447163     0.435566  Biso 1.000000     H
    H   1.0     0.643705     0.492234     0.386354  Biso 1.000000     H
    H   1.0     0.625655     0.772663     0.351077  Biso 1.000000     H
    H   1.0     0.759866     0.726823     0.399971  Biso 1.000000     H
    H   1.0     0.400522     0.747875     0.307772  Biso 1.000000     H
    H   1.0     0.379754     0.850297     0.204850  Biso 1.000000     H
    H   1.0     0.668707     0.791005     0.147705  Biso 1.000000     H
    H   1.0     0.690570     0.688078     0.249121  Biso 1.000000     H
    H   1.0     0.901289     0.288817     0.595981  Biso 1.000000     H
    H   1.0     0.883654     0.140098     0.600265  Biso 1.000000     H
    H   1.0     0.094000     0.115522     0.434696  Biso 1.000000     H
    H   1.0     0.101178     0.264585     0.437829  Biso 1.000000     H
    H   1.0     0.925376     0.000000     0.558960  Biso 1.000000     H
    H   1.0     0.552810     0.223832     0.062063  Biso 1.000000     H
    H   1.0     0.507977     0.358591     0.111317  Biso 1.000000     H
    H   1.0     0.227025     0.377115     0.147625  Biso 1.000000     H
    H   1.0     0.272627     0.242618     0.098716  Biso 1.000000     H
    H   1.0     0.252151     0.600771     0.192624  Biso 1.000000     H
    H   1.0     0.150625     0.619998     0.296395  Biso 1.000000     H
    H   1.0     0.211662     0.331116     0.351153  Biso 1.000000     H
    H   1.0     0.313805     0.310759     0.248898  Biso 1.000000     H
    H   1.0     0.712455     0.097910     0.903497  Biso 1.000000     H
    H   1.0     0.861109     0.115486     0.899507  Biso 1.000000     H
    H   1.0     0.883781     0.906547     0.065088  Biso 1.000000     H
    H   1.0     0.734825     0.899414     0.061692  Biso 1.000000     H
    H   1.0    -0.008615     0.074387     0.941173  Biso 1.000000     H
    C   1.0     0.141647     0.442744     0.551391  Biso 1.000000     C
    C   1.0     0.222573     0.415707     0.579758  Biso 1.000000     C
    C   1.0     0.255647     0.481807     0.583202  Biso 1.000000     C
    C   1.0     0.329916     0.457202     0.610401  Biso 1.000000     C
    C   1.0     0.371487     0.365661     0.634327  Biso 1.000000     C
    C   1.0     0.340463     0.298474     0.630493  Biso 1.000000     C
    C   1.0     0.265990     0.323956     0.603408  Biso 1.000000     C
    C   1.0     0.453843     0.286397     0.715420  Biso 1.000000     C
    C   1.0     0.541479     0.241594     0.727751  Biso 1.000000     C
    C   1.0     0.552595     0.185188     0.784781  Biso 1.000000     C
    C   1.0     0.477176     0.171883     0.829921  Biso 1.000000     C
    C   1.0     0.389968     0.218100     0.816854  Biso 1.000000     C
    C   1.0     0.377546     0.275598     0.760316  Biso 1.000000     C
    C   1.0     0.489150     0.109516     0.890767  Biso 1.000000     C
    C   1.0     0.057553     0.752949     0.438207  Biso 1.000000     C
    C   1.0     0.066666     0.835245     0.436465  Biso 1.000000     C
    C   1.0     0.012436     0.886118     0.482143  Biso 1.000000     C
    C   1.0     0.950225     0.849446     0.528200  Biso 1.000000     C
    C   1.0     0.945030     0.766874     0.526934  Biso 1.000000     C
    C   1.0     0.023347     0.972068     0.479738  Biso 1.000000     C
    C   1.0     0.557450     0.856809     0.949810  Biso 1.000000     C
    C   1.0     0.584526     0.775305     0.921843  Biso 1.000000     C
    C   1.0     0.518292     0.742027     0.918889  Biso 1.000000     C
    C   1.0     0.542799     0.667650     0.891638  Biso 1.000000     C
    C   1.0     0.634419     0.626023     0.867340  Biso 1.000000     C
    C   1.0     0.701800     0.656955     0.870955  Biso 1.000000     C
    C   1.0     0.676402     0.731579     0.898052  Biso 1.000000     C
    C   1.0     0.712860     0.544733     0.785310  Biso 1.000000     C
    C   1.0     0.757870     0.457548     0.772050  Biso 1.000000     C
    C   1.0     0.813789     0.447304     0.714562  Biso 1.000000     C
    C   1.0     0.826342     0.523155     0.669873  Biso 1.000000     C
    C   1.0     0.779792     0.609916     0.683826  Biso 1.000000     C
    C   1.0     0.722767     0.621463     0.740843  Biso 1.000000     C
    C   1.0     0.888624     0.512007     0.608687  Biso 1.000000     C
    C   1.0     0.246262     0.942940     0.062151  Biso 1.000000     C
    C   1.0     0.163979     0.933860     0.063768  Biso 1.000000     C
    C   1.0     0.113633     0.987676     0.018009  Biso 1.000000     C
    C   1.0     0.150766     0.049554     0.972045  Biso 1.000000     C
    C   1.0     0.233300     0.054721     0.973431  Biso 1.000000     C
    C   1.0     0.027725     0.976746     0.020255  Biso 1.000000     C
    C   1.0     0.858418     0.557088     0.448579  Biso 1.000000     C
    C   1.0     0.777506     0.584204     0.420181  Biso 1.000000     C
    C   1.0     0.744301     0.518149     0.416828  Biso 1.000000     C
    C   1.0     0.670061     0.542778     0.389598  Biso 1.000000     C
    C   1.0     0.628541     0.634321     0.365649  Biso 1.000000     C
    C   1.0     0.659641     0.701477     0.369444  Biso 1.000000     C
    C   1.0     0.734129     0.675964     0.396522  Biso 1.000000     C
    C   1.0     0.546194     0.713587     0.284542  Biso 1.000000     C
    C   1.0     0.458566     0.758359     0.272193  Biso 1.000000     C
    C   1.0     0.447463     0.814748     0.215155  Biso 1.000000     C
    C   1.0     0.522886     0.828065     0.170025  Biso 1.000000     C
    C   1.0     0.610085     0.781883     0.183114  Biso 1.000000     C
    C   1.0     0.622497     0.724396     0.239656  Biso 1.000000     C
    C   1.0     0.510938     0.890404     0.109167  Biso 1.000000     C
    C   1.0     0.942487     0.247045     0.561754  Biso 1.000000     C
    C   1.0     0.933364     0.164744     0.563517  Biso 1.000000     C
    C   1.0     0.987589     0.113846     0.517851  Biso 1.000000     C
    C   1.0     0.049806     0.150498     0.471785  Biso 1.000000     C
    C   1.0     0.055011     0.233074     0.473030  Biso 1.000000     C
    C   1.0     0.976670     0.027894     0.520268  Biso 1.000000     C
    C   1.0     0.442569     0.143134     0.050123  Biso 1.000000     C
    C   1.0     0.415509     0.224664     0.078059  Biso 1.000000     C
    C   1.0     0.481759     0.257912     0.081026  Biso 1.000000     C
    C   1.0     0.457268     0.332300     0.108263  Biso 1.000000     C
    C   1.0     0.365658     0.373907     0.132593  Biso 1.000000     C
    C   1.0     0.298265     0.342972     0.129001  Biso 1.000000     C
    C   1.0     0.323648     0.268331     0.101927  Biso 1.000000     C
    C   1.0     0.287253     0.455204     0.214619  Biso 1.000000     C
    C   1.0     0.242277     0.542392     0.227875  Biso 1.000000     C
    C   1.0     0.186437     0.552646     0.285383  Biso 1.000000     C
    C   1.0     0.173777     0.476815     0.330049  Biso 1.000000     C
    C   1.0     0.220275     0.390049     0.316098  Biso 1.000000     C
    C   1.0     0.277270     0.378488     0.259074  Biso 1.000000     C
    C   1.0     0.111504     0.488017     0.391227  Biso 1.000000     C
    C   1.0     0.753782     0.057010     0.937814  Biso 1.000000     C
    C   1.0     0.836057     0.066103     0.936204  Biso 1.000000     C
    C   1.0     0.886399     0.012290     0.981965  Biso 1.000000     C
    C   1.0     0.849260     0.950420     0.027934  Biso 1.000000     C
    C   1.0     0.766734     0.945243     0.026540  Biso 1.000000     C
    C   1.0     0.972301     0.023227     0.979723  Biso 1.000000     C
    N   1.0     0.997543     0.719107     0.482640  Biso 1.000000     N
    N   1.0     0.280588     0.002575     0.017769  Biso 1.000000     N
    N   1.0     0.002502     0.280863     0.517311  Biso 1.000000     N
    N   1.0     0.719449     0.997382     0.982199  Biso 1.000000     N
    O   1.0     0.105787     0.527253     0.530805  Biso 1.000000     O
    O   1.0     0.114735     0.379262     0.550150  Biso 1.000000     O
    O   1.0     0.447786     0.343912     0.658675  Biso 1.000000     O
    O   1.0     0.568059     0.079959     0.903554  Biso 1.000000     O
    O   1.0     0.419294     0.090228     0.925387  Biso 1.000000     O
    O   1.0     0.472879     0.892459     0.970955  Biso 1.000000     O
    O   1.0     0.620901     0.884560     0.949994  Biso 1.000000     O
    O   1.0     0.656158     0.549923     0.842603  Biso 1.000000     O
    O   1.0     0.918786     0.433310     0.595339  Biso 1.000000     O
    O   1.0     0.907455     0.582129     0.574451  Biso 1.000000     O
    O   1.0     0.893678     0.472664     0.469701  Biso 1.000000     O
    O   1.0     0.885947     0.620428     0.449274  Biso 1.000000     O
    O   1.0     0.552235     0.656102     0.341299  Biso 1.000000     O
    O   1.0     0.432080     0.919835     0.096315  Biso 1.000000     O
    O   1.0     0.580759     0.909822     0.074606  Biso 1.000000     O
    O   1.0     0.527109     0.107626     0.028813  Biso 1.000000     O
    O   1.0     0.379127     0.115297     0.050042  Biso 1.000000     O
    O   1.0     0.343950     0.450001     0.157328  Biso 1.000000     O
    O   1.0     0.082173     0.566480     0.404826  Biso 1.000000     O
    O   1.0     0.091921     0.418151     0.425231  Biso 1.000000     O
   Zn   1.0     0.994997     0.590483     0.488210  Biso 1.000000    Zn
   Zn   1.0     0.409396     0.004866     0.012233  Biso 1.000000    Zn
   Zn   1.0     0.005103     0.409472     0.511705  Biso 1.000000    Zn
   Zn   1.0     0.590652     0.995068     0.987715  Biso 1.000000    Zn
