#======================================================================

# CRYSTAL DATA

#----------------------------------------------------------------------

data_VESTA_phase_1


_pd_phase_name                         MOF
_cell_length_a                         13.32900
_cell_length_b                         16.20200
_cell_length_c                         20.28300
_cell_angle_alpha                      90.00000
_cell_angle_beta                       99.49600
_cell_angle_gamma                      90.00000
_symmetry_space_group_name_H-M         "P 1"
_symmetry_Int_Tables_number            1

loop_
_symmetry_equiv_pos_as_xyz
   "x, y, z"

loop_
   _atom_site_label
   _atom_site_occupancy
   _atom_site_fract_x
   _atom_site_fract_y
   _atom_site_fract_z
   _atom_site_adp_type
   _atom_site_B_iso_or_equiv
   _atom_site_type_symbol
    H   1.0     0.000601     0.892237     0.190181  Biso 1.000000     H
    H   1.0     0.814653     0.333421     0.488051  Biso 1.000000     H
    H   1.0     0.496665     0.860487     0.717094  Biso 1.000000     H
    H   1.0     0.439217     0.582839     0.506454  Biso 1.000000     H
    H   1.0     0.043548     0.520256     0.288572  Biso 1.000000     H
    H   1.0     0.790146     0.599176     0.501691  Biso 1.000000     H
    H   1.0     0.719271     0.335790     0.658324  Biso 1.000000     H
    H   1.0     0.212019     0.561008     0.610750  Biso 1.000000     H
    H   1.0     0.463659     0.403016     0.516383  Biso 1.000000     H
    H   1.0     0.234901     0.775569     0.580213  Biso 1.000000     H
    H   1.0     0.617628     0.231094     0.716209  Biso 1.000000     H
    H   1.0     0.518453     0.323948     0.234237  Biso 1.000000     H
    H   1.0     0.210729     0.767400     0.463329  Biso 1.000000     H
    H   1.0     0.677316     0.262202     0.204180  Biso 1.000000     H
    H   1.0    -0.095641     0.097817     0.280767  Biso 1.000000     H
    H   1.0     0.000000     0.590993     0.231343  Biso 1.000000     H
    H   1.0     0.306085     0.200290     0.975884  Biso 1.000000     H
    H   1.0     0.522168     0.090152     0.004220  Biso 1.000000     H
    H   1.0     0.204267     0.283205     0.762446  Biso 1.000000     H
    H   1.0     0.346041     0.368726     0.818064  Biso 1.000000     H
    H   1.0     0.384241     0.662547     0.789438  Biso 1.000000     H
    H   1.0     0.963169     0.398783     0.321599  Biso 1.000000     H
    H   1.0     0.151528     0.277613     0.963302  Biso 1.000000     H
    H   1.0     0.180603     0.914674     0.606702  Biso 1.000000     H
    H   1.0     0.556553     0.618070     0.204917  Biso 1.000000     H
    H   1.0     0.380536     0.896157     0.000000  Biso 1.000000     H
    H   1.0     0.667494     0.210254     0.442681  Biso 1.000000     H
    H   1.0     0.690970     0.217654     0.559878  Biso 1.000000     H
    H   1.0     0.691673     0.768644     0.572391  Biso 1.000000     H
    H   1.0    -0.033269     0.286680     0.876767  Biso 1.000000     H
    H   1.0     0.088737     0.653342     0.535693  Biso 1.000000     H
    H   1.0     0.029432     0.823763     0.000000  Biso 1.000000     H
    H   1.0     0.123043     0.830829     0.877492  Biso 1.000000     H
    H   1.0     0.731196     0.502201     0.823533  Biso 1.000000     H
    H   1.0     0.366052     0.293483     0.463781  Biso 1.000000     H
    H   1.0    -0.060238     0.585733     0.701426  Biso 1.000000     H
    H   1.0    -0.014507     0.957640     0.802298  Biso 1.000000     H
    H   1.0     0.935752     0.700740     0.146865  Biso 1.000000     H
    H   1.0     0.294773     0.702945     0.068039  Biso 1.000000     H
    H   1.0     0.224980     0.723880     0.819167  Biso 1.000000     H
    H   1.0     0.458777     0.169457     0.746337  Biso 1.000000     H
    H   1.0     0.182517     0.649119     0.365073  Biso 1.000000     H
    H   1.0     0.697577     0.704748     0.260678  Biso 1.000000     H
    H   1.0     0.918462     0.026984     0.223561  Biso 1.000000     H
    H   1.0     0.471719     0.362617     0.745861  Biso 1.000000     H
    H   1.0     0.596151     0.786633     0.047142  Biso 1.000000     H
    H   1.0    -0.156932     0.395433     0.792414  Biso 1.000000     H
    H   1.0     0.999551     0.886917     0.744879  Biso 1.000000     H
    H   1.0     0.271638     0.916759     0.098823  Biso 1.000000     H
    H   1.0     0.731054     0.878848     0.000000  Biso 1.000000     H
    H   1.0     0.751220     0.709167     0.060021  Biso 1.000000     H
    H   1.0     0.790831    -0.008391     0.311038  Biso 1.000000     H
    H   1.0     0.405777     0.125275     0.305781  Biso 1.000000     H
    H   1.0     0.372041     0.855589     0.789125  Biso 1.000000     H
    H   1.0     0.903589     0.094609     0.833665  Biso 1.000000     H
    H   1.0     0.749991     0.275104     0.047814  Biso 1.000000     H
    H   1.0     0.632058     0.068766     0.924987  Biso 1.000000     H
    H   1.0     0.778561     0.156475     0.145860  Biso 1.000000     H
    H   1.0     0.264187     0.210878     0.250202  Biso 1.000000     H
    H   1.0     0.536287     0.692105     0.559191  Biso 1.000000     H
    H   1.0     0.240586     0.563878     0.094291  Biso 1.000000     H
    H   1.0     0.530763     0.130665     0.233707  Biso 1.000000     H
    H   1.0     0.172476     0.106647     0.009191  Biso 1.000000     H
    H   1.0     0.113485     0.386738     0.521202  Biso 1.000000     H
    H   1.0     0.691681     0.424678     0.412883  Biso 1.000000     H
    H   1.0     0.111721     0.994396     0.711892  Biso 1.000000     H
    H   1.0     0.211388     0.216629     0.451036  Biso 1.000000     H
    H   1.0     0.637301     0.774345     0.772871  Biso 1.000000     H
    H   1.0     0.026617     0.207658     0.364509  Biso 1.000000     H
    H   1.0     0.607666     0.283218     0.954761  Biso 1.000000     H
    H   1.0     0.721573     0.071017     0.416243  Biso 1.000000     H
    H   1.0     0.431468     0.622987     0.276933  Biso 1.000000     H
    H   1.0     0.151408     0.712088     0.975464  Biso 1.000000     H
    H   1.0     0.286047     0.754753     0.307782  Biso 1.000000     H
    H   1.0     0.661291     0.423168     0.928659  Biso 1.000000     H
    H   1.0     0.875976     0.777217     0.659457  Biso 1.000000     H
    H   1.0     0.857242     0.466320     0.735058  Biso 1.000000     H
    H   1.0     0.444878     0.816423     0.277643  Biso 1.000000     H
    H   1.0     0.873604     0.159778    -0.023977  Biso 1.000000     H
    H   1.0     0.170904     0.484629     0.199387  Biso 1.000000     H
    C   1.0     0.194310     0.767483     0.969675  Biso 1.000000     C
    C   1.0     0.798565     0.775344     0.669522  Biso 1.000000     C
    C   1.0     0.595115     0.375298     0.326586  Biso 1.000000     C
    C   1.0     0.368256     0.867647     0.185235  Biso 1.000000     C
    C   1.0     0.012494     0.134455    -0.000299  Biso 1.000000     C
    C   1.0     0.209072     0.914715     0.659818  Biso 1.000000     C
    C   1.0    -0.062453     0.597708     0.648324  Biso 1.000000     C
    C   1.0     0.859085     0.250565     0.278846  Biso 1.000000     C
    C   1.0     0.438513     0.086128     0.857385  Biso 1.000000     C
    C   1.0     0.163624     0.284343     0.804472  Biso 1.000000     C
    C   1.0     0.190648     0.796134     0.217850  Biso 1.000000     C
    C   1.0     0.949966     0.627683     0.511656  Biso 1.000000     C
    C   1.0     0.586027     0.124111     0.031101  Biso 1.000000     C
    C   1.0     0.531918     0.162152     0.778829  Biso 1.000000     C
    C   1.0     0.376514     0.212370     0.380954  Biso 1.000000     C
    C   1.0     0.483623     0.330533     0.882807  Biso 1.000000     C
    C   1.0     0.376823     0.700563     0.083405  Biso 1.000000     C
    C   1.0    -0.022148     0.097688     0.930695  Biso 1.000000     C
    C   1.0    -0.043927     0.341581     0.584594  Biso 1.000000     C
    C   1.0     0.379007     0.329761     0.859725  Biso 1.000000     C
    C   1.0     0.283509     0.789422     0.261483  Biso 1.000000     C
    C   1.0     0.438804     0.164136     0.347492  Biso 1.000000     C
    C   1.0     0.418873     0.655888     0.140069  Biso 1.000000     C
    C   1.0     0.965577     0.387199     0.374778  Biso 1.000000     C
    C   1.0     0.543410     0.163209     0.370602  Biso 1.000000     C
    C   1.0     0.772656     0.303683     0.294086  Biso 1.000000     C
    C   1.0     0.441344     0.745879     0.049206  Biso 1.000000     C
    C   1.0     0.591587     0.331241     0.266739  Biso 1.000000     C
    C   1.0     0.770467     0.565034     0.629304  Biso 1.000000     C
    C   1.0     0.370306     0.594788     0.242534  Biso 1.000000     C
    C   1.0     0.535457     0.118115     0.838688  Biso 1.000000     C
    C   1.0     0.405365     0.579133     0.678553  Biso 1.000000     C
    C   1.0     0.876744     0.363507     0.398711  Biso 1.000000     C
    C   1.0     0.620162     0.196358     0.762473  Biso 1.000000     C
    C   1.0     0.072914     0.073484     0.905281  Biso 1.000000     C
    C   1.0     0.905978     0.106264     0.886832  Biso 1.000000     C
    C   1.0     0.015078     0.151731     0.072543  Biso 1.000000     C
    C   1.0     0.460978     0.240683     0.973708  Biso 1.000000     C
    C   1.0     0.629415     0.106290     0.880097  Biso 1.000000     C
    C   1.0     0.184709     0.843762     0.158938  Biso 1.000000     C
    C   1.0     0.822508     0.142498     0.979578  Biso 1.000000     C
    C   1.0     0.802816     0.872880     0.000000  Biso 1.000000     C
    C   1.0     0.375225     0.616762     0.479700  Biso 1.000000     C
    C   1.0     0.817123     0.129925     0.910755  Biso 1.000000     C
    C   1.0     0.719929     0.160467     0.102236  Biso 1.000000     C
    C   1.0     0.591854     0.102310     0.268063  Biso 1.000000     C
    C   1.0     0.585444     0.207784     0.427317  Biso 1.000000     C
    C   1.0     0.274295     0.879337     0.143770  Biso 1.000000     C
    C   1.0     0.713020     0.189622     0.806105  Biso 1.000000     C
    C   1.0     0.890716     0.849891     0.000000  Biso 1.000000     C
    C   1.0     0.545978     0.749417     0.072345  Biso 1.000000     C
    C   1.0     0.678363     0.775444     0.731049  Biso 1.000000     C
    C   1.0     0.768290     0.706412     0.113963  Biso 1.000000     C
    C   1.0     0.660834     0.332062     0.614576  Biso 1.000000     C
    C   1.0     0.308135     0.610748     0.697109  Biso 1.000000     C
    C   1.0     0.080769     0.841885     0.044462  Biso 1.000000     C
    C   1.0     0.707488     0.219465     0.053513  Biso 1.000000     C
    C   1.0     0.042905     0.734302     0.744307  Biso 1.000000     C
    C   1.0     0.124458     0.633836     0.670584  Biso 1.000000     C
    C   1.0     0.223519     0.209786     0.292216  Biso 1.000000     C
    C   1.0     0.679823     0.296976     0.250424  Biso 1.000000     C
    C   1.0     0.719009     0.141889     0.864967  Biso 1.000000     C
    C   1.0     0.465232     0.899735     0.166591  Biso 1.000000     C
    C   1.0     0.858406     0.702732     0.157032  Biso 1.000000     C
    C   1.0     0.947331     0.645976     0.439020  Biso 1.000000     C
    C   1.0     0.865813     0.589269     0.604267  Biso 1.000000     C
    C   1.0    -0.002087     0.879999     0.137070  Biso 1.000000     C
    C   1.0     0.778648     0.351482     0.352915  Biso 1.000000     C
    C   1.0     0.887608     0.831581     0.951663  Biso 1.000000     C
    C   1.0     0.726352     0.032426     0.310688  Biso 1.000000     C
    C   1.0     0.235580     0.525259     0.199809  Biso 1.000000     C
    C   1.0     0.103887     0.209596     0.354200  Biso 1.000000     C
    C   1.0     0.381524     0.732810     0.561333  Biso 1.000000     C
    C   1.0     0.525859     0.773261     0.642008  Biso 1.000000     C
    C   1.0     0.416225     0.256375     0.438494  Biso 1.000000     C
    C   1.0    -0.046475     0.358821     0.511733  Biso 1.000000     C
    C   1.0     0.525611     0.285794     0.939448  Biso 1.000000     C
    C   1.0     0.316951     0.778007     0.595583  Biso 1.000000     C
    C   1.0     0.633423     0.422766     0.875466  Biso 1.000000     C
    C   1.0     0.708556     0.771610     0.626332  Biso 1.000000     C
    C   1.0     0.041734     0.380806     0.487086  Biso 1.000000     C
    C   1.0     0.585720     0.705336     0.129850  Biso 1.000000     C
    C   1.0     0.738474     0.703333     0.218780  Biso 1.000000     C
    C   1.0     0.371754     0.823647     0.245111  Biso 1.000000     C
    C   1.0     0.666747     0.461320     0.823079  Biso 1.000000     C
    C   1.0     0.523470     0.656931     0.163220  Biso 1.000000     C
    C   1.0     0.037439     0.395869     0.418635  Biso 1.000000     C
    C   1.0     0.520849     0.252881     0.461607  Biso 1.000000     C
    C   1.0     0.689058     0.387130     0.368006  Biso 1.000000     C
    C   1.0     0.134250     0.280645     0.909378  Biso 1.000000     C
    C   1.0     0.176249     0.953630     0.712222  Biso 1.000000     C
    C   1.0     0.086521     0.855593     0.113169  Biso 1.000000     C
    C   1.0     0.103855     0.743410     0.233104  Biso 1.000000     C
    C   1.0     0.861757     0.604990     0.535957  Biso 1.000000     C
    C   1.0     0.830949     0.913009     0.118718  Biso 1.000000     C
    C   1.0     0.463601     0.821634     0.675391  Biso 1.000000     C
    C   1.0     0.799491     0.242699     0.790871  Biso 1.000000     C
    C   1.0     0.044008     0.284675     0.866470  Biso 1.000000     C
    C   1.0     0.693325     0.071160     0.363099  Biso 1.000000     C
    C   1.0     0.311222     0.654946     0.756861  Biso 1.000000     C
    C   1.0     0.268795     0.563941     0.147441  Biso 1.000000     C
    C   1.0     0.648535     0.273304     0.565663  Biso 1.000000     C
    C   1.0     0.194123     0.213547     0.397114  Biso 1.000000     C
    C   1.0     0.498159     0.407225     0.345300  Biso 1.000000     C
    C   1.0     0.527308     0.368856     0.543304  Biso 1.000000     C
    C   1.0     0.316384     0.862381     0.991777  Biso 1.000000     C
    C   1.0     0.214322     0.598543     0.655606  Biso 1.000000     C
    C   1.0     0.486149     0.729272     0.584463  Biso 1.000000     C
    C   1.0     0.132509     0.419997     0.393179  Biso 1.000000     C
    C   1.0     0.021253     0.635228     0.555964  Biso 1.000000     C
    C   1.0     0.181887     0.826527     0.920983  Biso 1.000000     C
    C   1.0     0.316653     0.281551     0.893167  Biso 1.000000     C
    C   1.0     0.532583     0.391155     0.780286  Biso 1.000000     C
    C   1.0     0.100723     0.112519    -0.024930  Biso 1.000000     C
    C   1.0     0.882127     0.350987     0.467541  Biso 1.000000     C
    C   1.0     0.356326     0.237380     0.950634  Biso 1.000000     C
    C   1.0     0.241150     0.653065     0.408695  Biso 1.000000     C
    C   1.0     0.925932     0.888446     0.093292  Biso 1.000000     C
    C   1.0     0.358998     0.822644     0.652269  Biso 1.000000     C
    C   1.0     0.253473     0.711927     0.457522  Biso 1.000000     C
    C   1.0     0.026476     0.621799     0.624662  Biso 1.000000     C
    C   1.0     0.222725     0.688964     0.773009  Biso 1.000000     C
    C   1.0     0.310865     0.883874     0.754793  Biso 1.000000     C
    C   1.0     0.129999     0.681753     0.729295  Biso 1.000000     C
    N   1.0     0.298978     0.545439     0.258769  Biso 1.000000     N
    N   1.0     0.692076     0.706388     0.153337  Biso 1.000000     N
    N   1.0     0.778683     0.777331     0.734593  Biso 1.000000     N
    N   1.0     0.838781     0.701237     0.222177  Biso 1.000000     N
    N   1.0     0.547229     0.378362     0.847981  Biso 1.000000     N
    N   1.0     0.317222     0.594363     0.422920  Biso 1.000000     N
    N   1.0     0.239834     0.933466     0.771112  Biso 1.000000     N
    N   1.0     0.295558     0.870567     0.687151  Biso 1.000000     N
    N   1.0     0.585080     0.391006     0.600235  Biso 1.000000     N
    N   1.0     0.606923     0.115379     0.335723  Biso 1.000000     N
    N   1.0     0.355352     0.607946     0.174876  Biso 1.000000     N
    N   1.0     0.603787     0.440646     0.764069  Biso 1.000000     N
    N   1.0     0.270145     0.213277     0.357592  Biso 1.000000     N
    N   1.0     0.339306     0.688846     0.502731  Biso 1.000000     N
    N   1.0     0.258180     0.885059     0.935158  Biso 1.000000     N
    N   1.0     0.123255     0.207670     0.289006  Biso 1.000000     N
    N   1.0     0.632171     0.772085     0.665578  Biso 1.000000     N
    N   1.0     0.644036     0.101628     0.087860  Biso 1.000000     N
    N   1.0     0.662986     0.052807     0.251769  Biso 1.000000     N
    N   1.0     0.280439     0.790270     0.000000  Biso 1.000000     N
    N   1.0     0.210264     0.280823     0.869845  Biso 1.000000     N
    N   1.0     0.621761     0.196347     0.008217  Biso 1.000000     N
    N   1.0     0.063367     0.286563     0.801272  Biso 1.000000     N
    N   1.0     0.563044     0.296709     0.520281  Biso 1.000000     N
    O   1.0     0.893386     0.267184     0.224835  Biso 1.000000     O
    O   1.0     0.006440     0.715782     0.797115  Biso 1.000000     O
    O   1.0     0.805296     0.838960     0.910391  Biso 1.000000     O
    O   1.0    -0.049537     0.808120     0.933494  Biso 1.000000     O
    O   1.0     0.745044     0.897487     0.082409  Biso 1.000000     O
    O   1.0     0.892001     0.321866     0.602958  Biso 1.000000     O
    O   1.0     0.462790     0.948267     0.116798  Biso 1.000000     O
    O   1.0     0.864671     0.640345     0.397839  Biso 1.000000     O
    O   1.0     0.684847     0.579483     0.592370  Biso 1.000000     O
    O   1.0     0.833860     0.226111     0.736881  Biso 1.000000     O
    O   1.0     0.903940     0.428267     0.764493  Biso 1.000000     O
    O   1.0     0.038905     0.345998     0.625676  Biso 1.000000     O
    O   1.0     0.500470     0.455757     0.395030  Biso 1.000000     O
    O   1.0     0.403267     0.530654     0.628747  Biso 1.000000     O
    O   1.0     0.886322     0.191443     0.318285  Biso 1.000000     O
    O   1.0     0.549026     0.876385     0.202254  Biso 1.000000     O
    O   1.0     0.440850     0.037576     0.907110  Biso 1.000000     O
    O   1.0     0.775324     0.530715     0.686726  Biso 1.000000     O
    O   1.0     0.158799     0.089175     0.941469  Biso 1.000000     O
    O   1.0     0.097976     0.147355     0.113591  Biso 1.000000     O
    O   1.0     0.414412     0.383603     0.309647  Biso 1.000000     O
    O   1.0     0.067516     0.037716     0.848384  Biso 1.000000     O
    O   1.0     0.951060     0.171446     0.090951  Biso 1.000000     O
    O   1.0     0.826700     0.301815     0.830328  Biso 1.000000     O
    O   1.0     0.489005     0.602791     0.714217  Biso 1.000000     O
    O   1.0     0.017162     0.794642     0.705848  Biso 1.000000     O
    O   1.0     0.354749     0.109689     0.821718  Biso 1.000000     O
    O   1.0     0.218370     0.404410     0.429440  Biso 1.000000     O
    O   1.0    -0.061076     0.918843     0.773543  Biso 1.000000     O
    O   1.0     0.076256     0.684320     0.193708  Biso 1.000000     O
    O   1.0     0.836257     0.948650     0.175606  Biso 1.000000     O
    O   1.0     0.965335     0.065051     0.252856  Biso 1.000000     O
    O   1.0    -0.003246     0.558425     0.259333  Biso 1.000000     O
    O   1.0     0.127180     0.455524     0.336191  Biso 1.000000     O
    O   1.0     0.010835     0.667664     0.420886  Biso 1.000000     O
    O   1.0     0.069445     0.760362     0.287011  Biso 1.000000     O
   Cd   1.0     0.315216     0.473851     0.360821  Biso 1.000000    Cd
   Cd   1.0     0.647421     0.966988     0.150031  Biso 1.000000    Cd
   Cd   1.0     0.255587     0.019483     0.872938  Biso 1.000000    Cd
   Cd   1.0    -0.002595     0.181198     0.201193  Biso 1.000000    Cd
   Cd   1.0     0.587550     0.512031     0.661942  Biso 1.000000    Cd
   Cd   1.0    -0.062363     0.312489     0.713260  Biso 1.000000    Cd
   Cd   1.0     0.904381     0.802129     0.822909  Biso 1.000000    Cd
   Cd   1.0     0.964442     0.675213     0.310321  Biso 1.000000    Cd
