#======================================================================

# CRYSTAL DATA

#----------------------------------------------------------------------

data_VESTA_phase_1


_pd_phase_name                         MOF
_cell_length_a                         16.98500
_cell_length_b                         20.63100
_cell_length_c                         14.17600
_cell_angle_alpha                      67.19200
_cell_angle_beta                       75.13300
_cell_angle_gamma                      76.55400
_symmetry_space_group_name_H-M         "P 1"
_symmetry_Int_Tables_number            1

loop_
_symmetry_equiv_pos_as_xyz
   "x, y, z"

loop_
   _atom_site_label
   _atom_site_occupancy
   _atom_site_fract_x
   _atom_site_fract_y
   _atom_site_fract_z
   _atom_site_adp_type
   _atom_site_B_iso_or_equiv
   _atom_site_type_symbol
    H   1.0     0.114663     0.097512     0.099405  Biso 1.000000     H
    H   1.0     0.114648     0.597515     0.099389  Biso 1.000000     H
    H   1.0     0.614662     0.097510     0.099407  Biso 1.000000     H
    H   1.0     0.614647     0.597490     0.099435  Biso 1.000000     H
    H   1.0     0.259749     0.165914     0.234920  Biso 1.000000     H
    H   1.0     0.259735     0.665895     0.234931  Biso 1.000000     H
    H   1.0     0.759757     0.165897     0.234929  Biso 1.000000     H
    H   1.0     0.759758     0.665886     0.234927  Biso 1.000000     H
    H   1.0     0.097484     0.235849     0.261002  Biso 1.000000     H
    H   1.0     0.097471     0.735834     0.261014  Biso 1.000000     H
    H   1.0     0.597495     0.235838     0.261013  Biso 1.000000     H
    H   1.0     0.597498     0.735832     0.261013  Biso 1.000000     H
    H   1.0     0.329021     0.100345     0.090835  Biso 1.000000     H
    H   1.0     0.329007     0.600333     0.090836  Biso 1.000000     H
    H   1.0     0.829023     0.100330     0.090843  Biso 1.000000     H
    H   1.0     0.829017     0.600302     0.090873  Biso 1.000000     H
    H   1.0     0.297299     0.029014     0.202224  Biso 1.000000     H
    H   1.0     0.297277     0.529000     0.202216  Biso 1.000000     H
    H   1.0     0.797295     0.028998     0.202224  Biso 1.000000     H
    H   1.0     0.797271     0.528970     0.202246  Biso 1.000000     H
    H   1.0     0.216003     0.459139     0.269982  Biso 1.000000     H
    H   1.0     0.216058     0.959137     0.270006  Biso 1.000000     H
    H   1.0     0.715989     0.459114     0.269993  Biso 1.000000     H
    H   1.0     0.716048     0.959123     0.269991  Biso 1.000000     H
    H   1.0     0.192129     0.386187     0.253333  Biso 1.000000     H
    H   1.0     0.192143     0.886196     0.253370  Biso 1.000000     H
    H   1.0     0.692124     0.386164     0.253328  Biso 1.000000     H
    H   1.0     0.692136     0.886187     0.253339  Biso 1.000000     H
    H   1.0     0.295714     0.391963     0.244526  Biso 1.000000     H
    H   1.0     0.295741     0.891947     0.244538  Biso 1.000000     H
    H   1.0     0.795706     0.391943     0.244535  Biso 1.000000     H
    H   1.0     0.795733     0.891936     0.244516  Biso 1.000000     H
    H   1.0     0.282295     0.170659     0.963617  Biso 1.000000     H
    H   1.0     0.282292     0.670655     0.963616  Biso 1.000000     H
    H   1.0     0.782289     0.170659     0.963632  Biso 1.000000     H
    H   1.0     0.782300     0.670639     0.963654  Biso 1.000000     H
    H   1.0     0.344784     0.150416     0.855267  Biso 1.000000     H
    H   1.0     0.344786     0.650416     0.855266  Biso 1.000000     H
    H   1.0     0.844781     0.150425     0.855276  Biso 1.000000     H
    H   1.0     0.844795     0.650407     0.855299  Biso 1.000000     H
    H   1.0     0.238014     0.180231     0.858479  Biso 1.000000     H
    H   1.0     0.238016     0.680239     0.858468  Biso 1.000000     H
    H   1.0     0.738011     0.180240     0.858487  Biso 1.000000     H
    H   1.0     0.738026     0.680232     0.858499  Biso 1.000000     H
    H   1.0     0.461729     0.019607     0.169577  Biso 1.000000     H
    H   1.0     0.461704     0.519599     0.169586  Biso 1.000000     H
    H   1.0     0.961722     0.019602     0.169581  Biso 1.000000     H
    H   1.0     0.961702     0.519596     0.169587  Biso 1.000000     H
    H   1.0     0.033701     0.101599     0.836304  Biso 1.000000     H
    H   1.0     0.033681     0.601606     0.836311  Biso 1.000000     H
    H   1.0     0.533700     0.101603     0.836297  Biso 1.000000     H
    H   1.0     0.533698     0.601609     0.836309  Biso 1.000000     H
    H   1.0     0.385384     0.288148     0.470793  Biso 1.000000     H
    H   1.0     0.385404     0.788087     0.470857  Biso 1.000000     H
    H   1.0     0.885385     0.288155     0.470785  Biso 1.000000     H
    H   1.0     0.885403     0.788100     0.470840  Biso 1.000000     H
    H   1.0     0.224301     0.201108     0.377873  Biso 1.000000     H
    H   1.0     0.224279     0.701142     0.377853  Biso 1.000000     H
    H   1.0     0.724303     0.201110     0.377870  Biso 1.000000     H
    H   1.0     0.724289     0.701127     0.377863  Biso 1.000000     H
    H   1.0     0.385349     0.402474     0.901137  Biso 1.000000     H
    H   1.0     0.385352     0.902461     0.901168  Biso 1.000000     H
    H   1.0     0.885356     0.402473     0.901132  Biso 1.000000     H
    H   1.0     0.885357     0.902482     0.901124  Biso 1.000000     H
    H   1.0     0.240239     0.334123     0.765586  Biso 1.000000     H
    H   1.0     0.240239     0.834116     0.765613  Biso 1.000000     H
    H   1.0     0.740248     0.334127     0.765572  Biso 1.000000     H
    H   1.0     0.740236     0.834115     0.765608  Biso 1.000000     H
    H   1.0     0.402499     0.264175     0.739489  Biso 1.000000     H
    H   1.0     0.402501     0.764172     0.739505  Biso 1.000000     H
    H   1.0     0.902506     0.264174     0.739483  Biso 1.000000     H
    H   1.0     0.902493     0.764164     0.739512  Biso 1.000000     H
    H   1.0     0.170993     0.399645     0.909744  Biso 1.000000     H
    H   1.0     0.171000     0.899621     0.909804  Biso 1.000000     H
    H   1.0     0.670999     0.399653     0.909719  Biso 1.000000     H
    H   1.0     0.670998     0.899646     0.909750  Biso 1.000000     H
    H   1.0     0.202689     0.470998     0.798376  Biso 1.000000     H
    H   1.0     0.202675     0.970977     0.798427  Biso 1.000000     H
    H   1.0     0.702706     0.471007     0.798359  Biso 1.000000     H
    H   1.0     0.702691     0.970999     0.798381  Biso 1.000000     H
    H   1.0     0.284001     0.040838     0.730628  Biso 1.000000     H
    H   1.0     0.284032     0.540850     0.730599  Biso 1.000000     H
    H   1.0     0.784002     0.040868     0.730602  Biso 1.000000     H
    H   1.0     0.784043     0.540860     0.730600  Biso 1.000000     H
    H   1.0     0.307791     0.113828     0.747268  Biso 1.000000     H
    H   1.0     0.307773     0.613854     0.747253  Biso 1.000000     H
    H   1.0     0.807787     0.113852     0.747261  Biso 1.000000     H
    H   1.0     0.807791     0.613854     0.747272  Biso 1.000000     H
    H   1.0     0.204227     0.107968     0.756110  Biso 1.000000     H
    H   1.0     0.204224     0.607961     0.756072  Biso 1.000000     H
    H   1.0     0.704225     0.107991     0.756098  Biso 1.000000     H
    H   1.0     0.704241     0.607972     0.756080  Biso 1.000000     H
    H   1.0     0.217711     0.329323     0.036972  Biso 1.000000     H
    H   1.0     0.217738     0.829306     0.037021  Biso 1.000000     H
    H   1.0     0.717709     0.329322     0.036949  Biso 1.000000     H
    H   1.0     0.717729     0.829319     0.036971  Biso 1.000000     H
    H   1.0     0.155190     0.349581     0.145296  Biso 1.000000     H
    H   1.0     0.155218     0.849567     0.145344  Biso 1.000000     H
    H   1.0     0.655186     0.349573     0.145277  Biso 1.000000     H
    H   1.0     0.655214     0.849571     0.145303  Biso 1.000000     H
    H   1.0     0.261952     0.319748     0.142145  Biso 1.000000     H
    H   1.0     0.261981     0.819743     0.142185  Biso 1.000000     H
    H   1.0     0.761947     0.319736     0.142129  Biso 1.000000     H
    H   1.0     0.761977     0.819745     0.142137  Biso 1.000000     H
    H   1.0     0.038293     0.480421     0.830895  Biso 1.000000     H
    H   1.0     0.038294     0.980412     0.830901  Biso 1.000000     H
    H   1.0     0.538302     0.480426     0.830893  Biso 1.000000     H
    H   1.0     0.538298     0.980414     0.830899  Biso 1.000000     H
    H   1.0     0.466307     0.398416     0.164174  Biso 1.000000     H
    H   1.0     0.466325     0.898418     0.164182  Biso 1.000000     H
    H   1.0     0.966311     0.398411     0.164175  Biso 1.000000     H
    H   1.0     0.966311     0.898416     0.164181  Biso 1.000000     H
    H   1.0     0.114592     0.211873     0.529636  Biso 1.000000     H
    H   1.0     0.114570     0.711907     0.529616  Biso 1.000000     H
    H   1.0     0.614592     0.211879     0.529629  Biso 1.000000     H
    H   1.0     0.614579     0.711895     0.529624  Biso 1.000000     H
    H   1.0     0.275674     0.298916     0.622551  Biso 1.000000     H
    H   1.0     0.275693     0.798856     0.622614  Biso 1.000000     H
    H   1.0     0.775674     0.298925     0.622541  Biso 1.000000     H
    H   1.0     0.775692     0.798872     0.622596  Biso 1.000000     H
    C   1.0     0.129799     0.125862     0.140849  Biso 1.000000     C
    C   1.0     0.129784     0.625859     0.140841  Biso 1.000000     C
    C   1.0     0.629801     0.125857     0.140853  Biso 1.000000     C
    C   1.0     0.629791     0.625840     0.140873  Biso 1.000000     C
    C   1.0     0.204811     0.161937     0.212877  Biso 1.000000     C
    C   1.0     0.204797     0.661923     0.212882  Biso 1.000000     C
    C   1.0     0.704817     0.161925     0.212886  Biso 1.000000     C
    C   1.0     0.704816     0.661913     0.212889  Biso 1.000000     C
    C   1.0     0.125626     0.196981     0.223644  Biso 1.000000     C
    C   1.0     0.125613     0.696969     0.223649  Biso 1.000000     C
    C   1.0     0.625635     0.196971     0.223653  Biso 1.000000     C
    C   1.0     0.625634     0.696961     0.223658  Biso 1.000000     C
    C   1.0     0.278775     0.068661     0.130551  Biso 1.000000     C
    C   1.0     0.278757     0.568653     0.130544  Biso 1.000000     C
    C   1.0     0.778774     0.068650     0.130553  Biso 1.000000     C
    C   1.0     0.778761     0.568628     0.130571  Biso 1.000000     C
    C   1.0     0.262721     0.033289     0.063230  Biso 1.000000     C
    C   1.0     0.262703     0.533287     0.063214  Biso 1.000000     C
    C   1.0     0.762718     0.033286     0.063222  Biso 1.000000     C
    C   1.0     0.762705     0.533271     0.063231  Biso 1.000000     C
    C   1.0     0.243865     0.463336     0.108916  Biso 1.000000     C
    C   1.0     0.243884     0.963333     0.108942  Biso 1.000000     C
    C   1.0     0.743863     0.463321     0.108922  Biso 1.000000     C
    C   1.0     0.743878     0.963332     0.108921  Biso 1.000000     C
    C   1.0     0.267565     0.070624     0.955416  Biso 1.000000     C
    C   1.0     0.267556     0.570628     0.955399  Biso 1.000000     C
    C   1.0     0.767562     0.070630     0.955409  Biso 1.000000     C
    C   1.0     0.767562     0.570618     0.955418  Biso 1.000000     C
    C   1.0     0.236521     0.423647     0.224648  Biso 1.000000     C
    C   1.0     0.236551     0.923644     0.224673  Biso 1.000000     C
    C   1.0     0.736514     0.423626     0.224653  Biso 1.000000     C
    C   1.0     0.736543     0.923635     0.224650  Biso 1.000000     C
    C   1.0     0.283902     0.146556     0.906542  Biso 1.000000     C
    C   1.0     0.283900     0.646558     0.906534  Biso 1.000000     C
    C   1.0     0.783898     0.146562     0.906549  Biso 1.000000     C
    C   1.0     0.783909     0.646547     0.906564  Biso 1.000000     C
    C   1.0     0.493811     0.139923     0.006171  Biso 1.000000     C
    C   1.0     0.493798     0.639920     0.006190  Biso 1.000000     C
    C   1.0     0.993813     0.139918     0.006179  Biso 1.000000     C
    C   1.0     0.993784     0.639919     0.006190  Biso 1.000000     C
    C   1.0     0.496983     0.067528     0.003236  Biso 1.000000     C
    C   1.0     0.496968     0.567527     0.003248  Biso 1.000000     C
    C   1.0     0.996986     0.067523     0.003242  Biso 1.000000     C
    C   1.0     0.996963     0.567524     0.003249  Biso 1.000000     C
    C   1.0     0.478324     0.010437     0.095759  Biso 1.000000     C
    C   1.0     0.478303     0.510434     0.095764  Biso 1.000000     C
    C   1.0     0.978320     0.010433     0.095763  Biso 1.000000     C
    C   1.0     0.978302     0.510430     0.095766  Biso 1.000000     C
    C   1.0     0.019092     0.056748     0.907446  Biso 1.000000     C
    C   1.0     0.019074     0.556753     0.907449  Biso 1.000000     C
    C   1.0     0.519098     0.056753     0.907440  Biso 1.000000     C
    C   1.0     0.519090     0.556756     0.907448  Biso 1.000000     C
    C   1.0     0.378312     0.239600     0.323665  Biso 1.000000     C
    C   1.0     0.378311     0.739584     0.323689  Biso 1.000000     C
    C   1.0     0.878315     0.239600     0.323664  Biso 1.000000     C
    C   1.0     0.878313     0.739590     0.323680  Biso 1.000000     C
    C   1.0     0.311681     0.244228     0.414761  Biso 1.000000     C
    C   1.0     0.311679     0.744215     0.414782  Biso 1.000000     C
    C   1.0     0.811683     0.244231     0.414755  Biso 1.000000     C
    C   1.0     0.811683     0.744215     0.414778  Biso 1.000000     C
    C   1.0     0.325767     0.271652     0.484434  Biso 1.000000     C
    C   1.0     0.325779     0.771609     0.484482  Biso 1.000000     C
    C   1.0     0.825768     0.271658     0.484427  Biso 1.000000     C
    C   1.0     0.825778     0.771622     0.484466  Biso 1.000000     C
    C   1.0     0.235249     0.222604     0.431559  Biso 1.000000     C
    C   1.0     0.235237     0.722614     0.431559  Biso 1.000000     C
    C   1.0     0.735251     0.222606     0.431554  Biso 1.000000     C
    C   1.0     0.735242     0.722611     0.431558  Biso 1.000000     C
    C   1.0     0.370207     0.374139     0.859675  Biso 1.000000     C
    C   1.0     0.370210     0.874128     0.859704  Biso 1.000000     C
    C   1.0     0.870215     0.374138     0.859669  Biso 1.000000     C
    C   1.0     0.870212     0.874142     0.859672  Biso 1.000000     C
    C   1.0     0.295180     0.338087     0.787635  Biso 1.000000     C
    C   1.0     0.295181     0.838079     0.787662  Biso 1.000000     C
    C   1.0     0.795189     0.338089     0.787624  Biso 1.000000     C
    C   1.0     0.795178     0.838081     0.787651  Biso 1.000000     C
    C   1.0     0.374361     0.303038     0.776858  Biso 1.000000     C
    C   1.0     0.374363     0.803033     0.776877  Biso 1.000000     C
    C   1.0     0.874369     0.303038     0.776851  Biso 1.000000     C
    C   1.0     0.874359     0.803032     0.776873  Biso 1.000000     C
    C   1.0     0.221232     0.431336     0.870029  Biso 1.000000     C
    C   1.0     0.221232     0.931318     0.870074  Biso 1.000000     C
    C   1.0     0.721242     0.431341     0.870014  Biso 1.000000     C
    C   1.0     0.721236     0.931337     0.870033  Biso 1.000000     C
    C   1.0     0.237294     0.466693     0.937366  Biso 1.000000     C
    C   1.0     0.237300     0.966680     0.937402  Biso 1.000000     C
    C   1.0     0.737301     0.466691     0.937362  Biso 1.000000     C
    C   1.0     0.737300     0.966693     0.937372  Biso 1.000000     C
    C   1.0     0.256133     0.036637     0.891693  Biso 1.000000     C
    C   1.0     0.256125     0.536648     0.891667  Biso 1.000000     C
    C   1.0     0.756131     0.036651     0.891675  Biso 1.000000     C
    C   1.0     0.756134     0.536645     0.891675  Biso 1.000000     C
    C   1.0     0.232439     0.429355     0.045180  Biso 1.000000     C
    C   1.0     0.232456     0.929346     0.045216  Biso 1.000000     C
    C   1.0     0.732440     0.429347     0.045176  Biso 1.000000     C
    C   1.0     0.732453     0.929351     0.045184  Biso 1.000000     C
    C   1.0     0.263444     0.076328     0.775965  Biso 1.000000     C
    C   1.0     0.263446     0.576338     0.775938  Biso 1.000000     C
    C   1.0     0.763443     0.076350     0.775950  Biso 1.000000     C
    C   1.0     0.763459     0.576343     0.775947  Biso 1.000000     C
    C   1.0     0.216086     0.353428     0.094051  Biso 1.000000     C
    C   1.0     0.216112     0.853417     0.094094  Biso 1.000000     C
    C   1.0     0.716083     0.353421     0.094035  Biso 1.000000     C
    C   1.0     0.716106     0.853423     0.094051  Biso 1.000000     C
    C   1.0     0.006227     0.360096     0.994268  Biso 1.000000     C
    C   1.0     0.006221     0.860093     0.994280  Biso 1.000000     C
    C   1.0     0.506238     0.360100     0.994267  Biso 1.000000     C
    C   1.0     0.506248     0.860092     0.994284  Biso 1.000000     C
    C   1.0     0.003042     0.432488     0.997233  Biso 1.000000     C
    C   1.0     0.003043     0.932485     0.997239  Biso 1.000000     C
    C   1.0     0.503053     0.432492     0.997231  Biso 1.000000     C
    C   1.0     0.503061     0.932487     0.997239  Biso 1.000000     C
    C   1.0     0.021698     0.489584     0.904717  Biso 1.000000     C
    C   1.0     0.021701     0.989578     0.904720  Biso 1.000000     C
    C   1.0     0.521709     0.489589     0.904715  Biso 1.000000     C
    C   1.0     0.521709     0.989581     0.904717  Biso 1.000000     C
    C   1.0     0.480923     0.443265     0.093032  Biso 1.000000     C
    C   1.0     0.480936     0.943265     0.093036  Biso 1.000000     C
    C   1.0     0.980925     0.443261     0.093034  Biso 1.000000     C
    C   1.0     0.980928     0.943262     0.093037  Biso 1.000000     C
    C   1.0     0.121662     0.260413     0.676760  Biso 1.000000     C
    C   1.0     0.121657     0.760407     0.676775  Biso 1.000000     C
    C   1.0     0.621663     0.260421     0.676752  Biso 1.000000     C
    C   1.0     0.621666     0.760402     0.676778  Biso 1.000000     C
    C   1.0     0.188295     0.255792     0.585664  Biso 1.000000     C
    C   1.0     0.188292     0.755781     0.585683  Biso 1.000000     C
    C   1.0     0.688295     0.255799     0.585655  Biso 1.000000     C
    C   1.0     0.688295     0.755785     0.585676  Biso 1.000000     C
    C   1.0     0.174209     0.228371     0.515989  Biso 1.000000     C
    C   1.0     0.174195     0.728385     0.515986  Biso 1.000000     C
    C   1.0     0.674209     0.228376     0.515982  Biso 1.000000     C
    C   1.0     0.674205     0.728372     0.515995  Biso 1.000000     C
    C   1.0     0.264726     0.277421     0.568865  Biso 1.000000     C
    C   1.0     0.264735     0.777383     0.568908  Biso 1.000000     C
    C   1.0     0.764726     0.277428     0.568856  Biso 1.000000     C
    C   1.0     0.764739     0.777385     0.568902  Biso 1.000000     C
    N   1.0     0.079333     0.174348     0.177952  Biso 1.000000     N
    N   1.0     0.079320     0.674343     0.177949  Biso 1.000000     N
    N   1.0     0.579339     0.174343     0.177958  Biso 1.000000     N
    N   1.0     0.579333     0.674330     0.177974  Biso 1.000000     N
    N   1.0     0.206100     0.116921     0.160699  Biso 1.000000     N
    N   1.0     0.206085     0.616913     0.160695  Biso 1.000000     N
    N   1.0     0.706103     0.116911     0.160704  Biso 1.000000     N
    N   1.0     0.706095     0.616896     0.160716  Biso 1.000000     N
    N   1.0     0.420663     0.325657     0.822554  Biso 1.000000     N
    N   1.0     0.420666     0.825650     0.822574  Biso 1.000000     N
    N   1.0     0.920671     0.325655     0.822550  Biso 1.000000     N
    N   1.0     0.920665     0.825656     0.822557  Biso 1.000000     N
    N   1.0     0.293903     0.383092     0.839827  Biso 1.000000     N
    N   1.0     0.293904     0.883081     0.839859  Biso 1.000000     N
    N   1.0     0.793912     0.383094     0.839816  Biso 1.000000     N
    N   1.0     0.793906     0.883092     0.839831  Biso 1.000000     N
    O   1.0     0.444699     0.155300     0.082076  Biso 1.000000     O
    O   1.0     0.444680     0.655297     0.082091  Biso 1.000000     O
    O   1.0     0.944700     0.155294     0.082084  Biso 1.000000     O
    O   1.0     0.944666     0.655295     0.082093  Biso 1.000000     O
    O   1.0     0.041942     0.179530     0.934039  Biso 1.000000     O
    O   1.0     0.041915     0.679532     0.934055  Biso 1.000000     O
    O   1.0     0.541955     0.179534     0.934030  Biso 1.000000     O
    O   1.0     0.541948     0.679529     0.934058  Biso 1.000000     O
    O   1.0     0.363398     0.211215     0.263124  Biso 1.000000     O
    O   1.0     0.363390     0.711214     0.263134  Biso 1.000000     O
    O   1.0     0.863403     0.211213     0.263124  Biso 1.000000     O
    O   1.0     0.863396     0.711211     0.263133  Biso 1.000000     O
    O   1.0     0.444306     0.262684     0.307403  Biso 1.000000     O
    O   1.0     0.444312     0.762657     0.307437  Biso 1.000000     O
    O   1.0     0.944309     0.262686     0.307401  Biso 1.000000     O
    O   1.0     0.944311     0.762667     0.307425  Biso 1.000000     O
    O   1.0     0.055325     0.344738     0.918338  Biso 1.000000     O
    O   1.0     0.055319     0.844732     0.918353  Biso 1.000000     O
    O   1.0     0.555335     0.344742     0.918336  Biso 1.000000     O
    O   1.0     0.555342     0.844733     0.918352  Biso 1.000000     O
    O   1.0     0.458112     0.320474     0.066409  Biso 1.000000     O
    O   1.0     0.458127     0.820467     0.066433  Biso 1.000000     O
    O   1.0     0.958113     0.320471     0.066408  Biso 1.000000     O
    O   1.0     0.958105     0.820471     0.066421  Biso 1.000000     O
    O   1.0     0.136577     0.288817     0.737273  Biso 1.000000     O
    O   1.0     0.136573     0.788809     0.737289  Biso 1.000000     O
    O   1.0     0.636582     0.288820     0.737267  Biso 1.000000     O
    O   1.0     0.636581     0.788812     0.737282  Biso 1.000000     O
    O   1.0     0.055676     0.237308     0.693055  Biso 1.000000     O
    O   1.0     0.055669     0.737305     0.693068  Biso 1.000000     O
    O   1.0     0.555675     0.237319     0.693045  Biso 1.000000     O
    O   1.0     0.555678     0.737300     0.693074  Biso 1.000000     O
   Zn   1.0     0.464142     0.217165     0.153539  Biso 1.000000    Zn
   Zn   1.0     0.464137     0.717157     0.153557  Biso 1.000000    Zn
   Zn   1.0     0.964148     0.217163     0.153539  Biso 1.000000    Zn
   Zn   1.0     0.964133     0.717160     0.153542  Biso 1.000000    Zn
   Zn   1.0     0.035867     0.282841     0.846911  Biso 1.000000    Zn
   Zn   1.0     0.035860     0.782840     0.846920  Biso 1.000000    Zn
   Zn   1.0     0.535876     0.282846     0.846909  Biso 1.000000    Zn
   Zn   1.0     0.535878     0.782838     0.846927  Biso 1.000000    Zn
