#======================================================================

# CRYSTAL DATA

#----------------------------------------------------------------------

data_VESTA_phase_1


_pd_phase_name                         MOF
_cell_length_a                         18.74700
_cell_length_b                         18.74200
_cell_length_c                         18.74600
_cell_angle_alpha                      60.13600
_cell_angle_beta                       60.10600
_cell_angle_gamma                      60.13200
_symmetry_space_group_name_H-M         "P 1"
_symmetry_Int_Tables_number            1

loop_
_symmetry_equiv_pos_as_xyz
   "x, y, z"

loop_
   _atom_site_label
   _atom_site_occupancy
   _atom_site_fract_x
   _atom_site_fract_y
   _atom_site_fract_z
   _atom_site_adp_type
   _atom_site_B_iso_or_equiv
   _atom_site_type_symbol
    H   1.0     0.495375     0.266274     0.971709  Biso 1.000000     H
    H   1.0     0.265887     0.495026     0.265839  Biso 1.000000     H
    H   1.0     0.971337     0.266382     0.495462  Biso 1.000000     H
    H   1.0     0.265706     0.972567     0.265655  Biso 1.000000     H
    H   1.0     0.495647     0.971526     0.266289  Biso 1.000000     H
    H   1.0     0.265548     0.265724     0.972433  Biso 1.000000     H
    H   1.0     0.971164     0.495760     0.266251  Biso 1.000000     H
    H   1.0     0.265858     0.265735     0.495162  Biso 1.000000     H
    H   1.0     0.495293     0.265799     0.265839  Biso 1.000000     H
    H   1.0     0.266200     0.971736     0.495569  Biso 1.000000     H
    H   1.0     0.971663     0.265966     0.265756  Biso 1.000000     H
    H   1.0     0.266062     0.495567     0.971814  Biso 1.000000     H
    H   1.0     0.733902     0.504527     0.028147  Biso 1.000000     H
    H   1.0     0.504687     0.734267     0.734123  Biso 1.000000     H
    H   1.0     0.733754     0.028336     0.504404  Biso 1.000000     H
    H   1.0     0.028298     0.734160     0.734175  Biso 1.000000     H
    H   1.0     0.028799     0.504322     0.733764  Biso 1.000000     H
    H   1.0     0.734394     0.734364     0.027560  Biso 1.000000     H
    H   1.0     0.504326     0.028538     0.733703  Biso 1.000000     H
    H   1.0     0.734133     0.734308     0.504812  Biso 1.000000     H
    H   1.0     0.734083     0.505029     0.734145  Biso 1.000000     H
    H   1.0     0.028625     0.733661     0.504511  Biso 1.000000     H
    H   1.0     0.734278     0.027511     0.734300  Biso 1.000000     H
    H   1.0     0.504580     0.733811     0.028262  Biso 1.000000     H
    C   1.0     0.386015     0.386208     0.970403  Biso 1.000000     C
    C   1.0     0.430275     0.430480     0.975661  Biso 1.000000     C
    C   1.0     0.385835     0.385667     0.256612  Biso 1.000000     C
    C   1.0     0.430072     0.429921     0.163069  Biso 1.000000     C
    C   1.0     0.970186     0.256987     0.385865  Biso 1.000000     C
    C   1.0     0.975834     0.163275     0.429906  Biso 1.000000     C
    C   1.0     0.256774     0.970818     0.385866  Biso 1.000000     C
    C   1.0     0.163076     0.976449     0.429912  Biso 1.000000     C
    C   1.0     0.385925     0.970714     0.256799  Biso 1.000000     C
    C   1.0     0.430020     0.976240     0.163131  Biso 1.000000     C
    C   1.0     0.385708     0.256818     0.970761  Biso 1.000000     C
    C   1.0     0.429810     0.163165     0.976247  Biso 1.000000     C
    C   1.0     0.969870     0.386377     0.386172  Biso 1.000000     C
    C   1.0     0.975359     0.430574     0.430367  Biso 1.000000     C
    C   1.0     0.256622     0.385638     0.385752  Biso 1.000000     C
    C   1.0     0.163055     0.429873     0.429990  Biso 1.000000     C
    C   1.0     0.385806     0.256563     0.385738  Biso 1.000000     C
    C   1.0     0.430025     0.163042     0.429953  Biso 1.000000     C
    C   1.0     0.386209     0.970240     0.386217  Biso 1.000000     C
    C   1.0     0.430440     0.975527     0.430467  Biso 1.000000     C
    C   1.0     0.970088     0.386103     0.256859  Biso 1.000000     C
    C   1.0     0.975752     0.430135     0.163178  Biso 1.000000     C
    C   1.0     0.256647     0.385874     0.970836  Biso 1.000000     C
    C   1.0     0.163013     0.429949     0.976369  Biso 1.000000     C
    C   1.0     0.613934     0.613867     0.029598  Biso 1.000000     C
    C   1.0     0.569684     0.569602     0.024315  Biso 1.000000     C
    C   1.0     0.614137     0.614393     0.743359  Biso 1.000000     C
    C   1.0     0.569899     0.570147     0.836904  Biso 1.000000     C
    C   1.0     0.743203     0.029238     0.614103  Biso 1.000000     C
    C   1.0     0.836895     0.023628     0.570041  Biso 1.000000     C
    C   1.0     0.029760     0.743100     0.614089  Biso 1.000000     C
    C   1.0     0.024123     0.836808     0.570029  Biso 1.000000     C
    C   1.0     0.029852     0.614013     0.743120  Biso 1.000000     C
    C   1.0     0.024207     0.569992     0.836796  Biso 1.000000     C
    C   1.0     0.743298     0.614207     0.029174  Biso 1.000000     C
    C   1.0     0.836942     0.570147     0.023610  Biso 1.000000     C
    C   1.0     0.613761     0.029809     0.613772  Biso 1.000000     C
    C   1.0     0.569518     0.024535     0.569524  Biso 1.000000     C
    C   1.0     0.614179     0.743490     0.614227  Biso 1.000000     C
    C   1.0     0.569964     0.837013     0.570013  Biso 1.000000     C
    C   1.0     0.743359     0.614408     0.614227  Biso 1.000000     C
    C   1.0     0.836929     0.570172     0.569998  Biso 1.000000     C
    C   1.0     0.030077     0.613688     0.613830  Biso 1.000000     C
    C   1.0     0.024615     0.569466     0.569640  Biso 1.000000     C
    C   1.0     0.614059     0.029343     0.743178  Biso 1.000000     C
    C   1.0     0.569960     0.023840     0.836840  Biso 1.000000     C
    C   1.0     0.614230     0.743259     0.029248  Biso 1.000000     C
    C   1.0     0.570138     0.836918     0.023739  Biso 1.000000     C
    C   1.0     0.428929     0.300107     0.970403  Biso 1.000000     C
    C   1.0     0.299752     0.428633     0.299709  Biso 1.000000     C
    C   1.0     0.969911     0.300259     0.429059  Biso 1.000000     C
    C   1.0     0.299747     0.970913     0.299721  Biso 1.000000     C
    C   1.0     0.429145     0.970321     0.300086  Biso 1.000000     C
    C   1.0     0.299603     0.299770     0.970819  Biso 1.000000     C
    C   1.0     0.969818     0.429311     0.300109  Biso 1.000000     C
    C   1.0     0.299725     0.299621     0.428745  Biso 1.000000     C
    C   1.0     0.428846     0.299649     0.299696  Biso 1.000000     C
    C   1.0     0.300040     0.970444     0.429096  Biso 1.000000     C
    C   1.0     0.970102     0.299988     0.299805  Biso 1.000000     C
    C   1.0     0.299919     0.429117     0.970465  Biso 1.000000     C
    C   1.0     0.700058     0.570992     0.029454  Biso 1.000000     C
    C   1.0     0.571136     0.700414     0.700273  Biso 1.000000     C
    C   1.0     0.699915     0.029652     0.570869  Biso 1.000000     C
    C   1.0     0.029884     0.700111     0.700136  Biso 1.000000     C
    C   1.0     0.030170     0.570763     0.699879  Biso 1.000000     C
    C   1.0     0.700359     0.700334     0.029118  Biso 1.000000     C
    C   1.0     0.570818     0.029770     0.699888  Biso 1.000000     C
    C   1.0     0.700264     0.700428     0.571231  Biso 1.000000     C
    C   1.0     0.700224     0.571424     0.700273  Biso 1.000000     C
    C   1.0     0.030078     0.699792     0.570904  Biso 1.000000     C
    C   1.0     0.700222     0.029187     0.700234  Biso 1.000000     C
    C   1.0     0.571042     0.699994     0.029522  Biso 1.000000     C
    O   1.0     0.386320     0.507926     0.978802  Biso 1.000000     O
    O   1.0     0.507560     0.386031     0.126543  Biso 1.000000     O
    O   1.0     0.979033     0.126510     0.385895  Biso 1.000000     O
    O   1.0     0.126670     0.979755     0.507304  Biso 1.000000     O
    O   1.0     0.386041     0.979232     0.126494  Biso 1.000000     O
    O   1.0     0.507236     0.126861     0.979386  Biso 1.000000     O
    O   1.0     0.978433     0.386618     0.507813  Biso 1.000000     O
    O   1.0     0.126634     0.507359     0.386078  Biso 1.000000     O
    O   1.0     0.386087     0.126607     0.507456  Biso 1.000000     O
    O   1.0     0.507925     0.978557     0.386510  Biso 1.000000     O
    O   1.0     0.979115     0.507498     0.126820  Biso 1.000000     O
    O   1.0     0.126345     0.385955     0.979399  Biso 1.000000     O
    O   1.0     0.492198     0.613527     0.021350  Biso 1.000000     O
    O   1.0     0.613808     0.492649     0.873306  Biso 1.000000     O
    O   1.0     0.873520     0.020671     0.614011  Biso 1.000000     O
    O   1.0     0.020824     0.873135     0.492664  Biso 1.000000     O
    O   1.0     0.021110     0.614010     0.873489  Biso 1.000000     O
    O   1.0     0.873279     0.492752     0.020328  Biso 1.000000     O
    O   1.0     0.613505     0.021429     0.492065  Biso 1.000000     O
    O   1.0     0.492458     0.873475     0.613932  Biso 1.000000     O
    O   1.0     0.873454     0.614073     0.492523  Biso 1.000000     O
    O   1.0     0.021400     0.492050     0.613619  Biso 1.000000     O
    O   1.0     0.492566     0.020551     0.873241  Biso 1.000000     O
    O   1.0     0.614103     0.873631     0.020690  Biso 1.000000     O
    O   1.0     0.613646     0.492164     0.021154  Biso 1.000000     O
    O   1.0     0.492416     0.614042     0.873432  Biso 1.000000     O
    O   1.0     0.020968     0.873566     0.614020  Biso 1.000000     O
    O   1.0     0.873290     0.020343     0.492641  Biso 1.000000     O
    O   1.0     0.613939     0.020846     0.873480  Biso 1.000000     O
    O   1.0     0.492722     0.873227     0.020574  Biso 1.000000     O
    O   1.0     0.021546     0.613414     0.492192  Biso 1.000000     O
    O   1.0     0.873348     0.492689     0.613919  Biso 1.000000     O
    O   1.0     0.613912     0.873450     0.492520  Biso 1.000000     O
    O   1.0     0.492044     0.021473     0.613495  Biso 1.000000     O
    O   1.0     0.020885     0.492616     0.873148  Biso 1.000000     O
    O   1.0     0.873604     0.614132     0.020608  Biso 1.000000     O
    O   1.0     0.507762     0.386553     0.978624  Biso 1.000000     O
    O   1.0     0.386155     0.507415     0.126671  Biso 1.000000     O
    O   1.0     0.126457     0.979383     0.385951  Biso 1.000000     O
    O   1.0     0.979122     0.126942     0.507275  Biso 1.000000     O
    O   1.0     0.978812     0.386136     0.126491  Biso 1.000000     O
    O   1.0     0.126686     0.507362     0.979608  Biso 1.000000     O
    O   1.0     0.386443     0.978656     0.507919  Biso 1.000000     O
    O   1.0     0.507522     0.126574     0.386026  Biso 1.000000     O
    O   1.0     0.126529     0.385970     0.507465  Biso 1.000000     O
    O   1.0     0.978589     0.507985     0.386387  Biso 1.000000     O
    O   1.0     0.507413     0.979535     0.126731  Biso 1.000000     O
    O   1.0     0.385853     0.126454     0.979281  Biso 1.000000     O
   Cu   1.0     0.434612     0.565388     0.000065  Biso 1.000000    Cu
   Cu   1.0     0.565347     0.434685    -0.000084  Biso 1.000000    Cu
   Cu   1.0    -0.000137    -0.000211     0.434646  Biso 1.000000    Cu
   Cu   1.0     0.000109     0.000273     0.565292  Biso 1.000000    Cu
   Cu   1.0     0.434650    -0.000193    -0.000137  Biso 1.000000    Cu
   Cu   1.0     0.565318     0.000255     0.000116  Biso 1.000000    Cu
   Cu   1.0    -0.000072     0.434677     0.565353  Biso 1.000000    Cu
   Cu   1.0     0.000050     0.565361     0.434648  Biso 1.000000    Cu
   Cu   1.0     0.434597     0.000041     0.565371  Biso 1.000000    Cu
   Cu   1.0     0.565390    -0.000001     0.434606  Biso 1.000000    Cu
   Cu   1.0     0.000162     0.565385     0.000181  Biso 1.000000    Cu
   Cu   1.0    -0.000209     0.434696    -0.000201  Biso 1.000000    Cu
