#======================================================================

# CRYSTAL DATA

#----------------------------------------------------------------------

data_VESTA_phase_1


_pd_phase_name                         MOF
_cell_length_a                         18.75400
_cell_length_b                         18.74000
_cell_length_c                         18.75200
_cell_angle_alpha                      60.14100
_cell_angle_beta                       60.07500
_cell_angle_gamma                      60.14900
_symmetry_space_group_name_H-M         "P 1"
_symmetry_Int_Tables_number            1

loop_
_symmetry_equiv_pos_as_xyz
   "x, y, z"

loop_
   _atom_site_label
   _atom_site_occupancy
   _atom_site_fract_x
   _atom_site_fract_y
   _atom_site_fract_z
   _atom_site_adp_type
   _atom_site_B_iso_or_equiv
   _atom_site_type_symbol
    H   1.0     0.495264     0.266268     0.971849  Biso 1.000000     H
    H   1.0     0.265812     0.494772     0.265809  Biso 1.000000     H
    H   1.0     0.971259     0.266362     0.495482  Biso 1.000000     H
    H   1.0     0.265691     0.972754     0.265683  Biso 1.000000     H
    H   1.0     0.495656     0.971517     0.266276  Biso 1.000000     H
    H   1.0     0.265475     0.265541     0.972850  Biso 1.000000     H
    H   1.0     0.971159     0.495733     0.266308  Biso 1.000000     H
    H   1.0     0.265728     0.265516     0.495110  Biso 1.000000     H
    H   1.0     0.495199     0.265695     0.265740  Biso 1.000000     H
    H   1.0     0.266157     0.971800     0.495601  Biso 1.000000     H
    H   1.0     0.971759     0.265863     0.265805  Biso 1.000000     H
    H   1.0     0.266025     0.495488     0.972055  Biso 1.000000     H
    H   1.0     0.734004     0.504521     0.027948  Biso 1.000000     H
    H   1.0     0.504832     0.734322     0.734224  Biso 1.000000     H
    H   1.0     0.733903     0.028169     0.504383  Biso 1.000000     H
    H   1.0     0.028293     0.734163     0.734153  Biso 1.000000     H
    H   1.0     0.028886     0.504239     0.733760  Biso 1.000000     H
    H   1.0     0.734556     0.734468     0.027147  Biso 1.000000     H
    H   1.0     0.504394     0.028458     0.733699  Biso 1.000000     H
    H   1.0     0.734349     0.734400     0.504897  Biso 1.000000     H
    H   1.0     0.734169     0.505195     0.734250  Biso 1.000000     H
    H   1.0     0.028767     0.733559     0.504538  Biso 1.000000     H
    H   1.0     0.734351     0.027226     0.734302  Biso 1.000000     H
    H   1.0     0.504771     0.733736     0.028151  Biso 1.000000     H
    C   1.0     0.385936     0.386171     0.970618  Biso 1.000000     C
    C   1.0     0.430237     0.430494     0.975735  Biso 1.000000     C
    C   1.0     0.385734     0.385471     0.256552  Biso 1.000000     C
    C   1.0     0.430029     0.429791     0.163043  Biso 1.000000     C
    C   1.0     0.970204     0.256939     0.385893  Biso 1.000000     C
    C   1.0     0.975888     0.163215     0.429914  Biso 1.000000     C
    C   1.0     0.256737     0.971001     0.385877  Biso 1.000000     C
    C   1.0     0.163067     0.976558     0.429948  Biso 1.000000     C
    C   1.0     0.385894     0.970847     0.256828  Biso 1.000000     C
    C   1.0     0.430007     0.976269     0.163228  Biso 1.000000     C
    C   1.0     0.385593     0.256749     0.971068  Biso 1.000000     C
    C   1.0     0.429731     0.163195     0.976375  Biso 1.000000     C
    C   1.0     0.969849     0.386357     0.386211  Biso 1.000000     C
    C   1.0     0.975261     0.430582     0.430432  Biso 1.000000     C
    C   1.0     0.256519     0.385386     0.385699  Biso 1.000000     C
    C   1.0     0.162987     0.429632     0.429977  Biso 1.000000     C
    C   1.0     0.385685     0.256393     0.385656  Biso 1.000000     C
    C   1.0     0.429978     0.162948     0.429920  Biso 1.000000     C
    C   1.0     0.386192     0.970305     0.386232  Biso 1.000000     C
    C   1.0     0.430481     0.975437     0.430515  Biso 1.000000     C
    C   1.0     0.970139     0.386027     0.256930  Biso 1.000000     C
    C   1.0     0.975685     0.430082     0.163333  Biso 1.000000     C
    C   1.0     0.256602     0.385726     0.971189  Biso 1.000000     C
    C   1.0     0.163081     0.429810     0.976587  Biso 1.000000     C
    C   1.0     0.614094     0.613837     0.029384  Biso 1.000000     C
    C   1.0     0.569789     0.569512     0.024271  Biso 1.000000     C
    C   1.0     0.614272     0.614522     0.743460  Biso 1.000000     C
    C   1.0     0.569966     0.570229     0.836973  Biso 1.000000     C
    C   1.0     0.743315     0.028967     0.614111  Biso 1.000000     C
    C   1.0     0.836986     0.023407     0.570041  Biso 1.000000     C
    C   1.0     0.029838     0.743035     0.614091  Biso 1.000000     C
    C   1.0     0.024156     0.836760     0.570049  Biso 1.000000     C
    C   1.0     0.029907     0.613975     0.743081  Biso 1.000000     C
    C   1.0     0.024356     0.569948     0.836678  Biso 1.000000     C
    C   1.0     0.743431     0.614281     0.028811  Biso 1.000000     C
    C   1.0     0.836950     0.570201     0.023417  Biso 1.000000     C
    C   1.0     0.613867     0.029658     0.613751  Biso 1.000000     C
    C   1.0     0.569587     0.024520     0.569466  Biso 1.000000     C
    C   1.0     0.614370     0.743575     0.614330  Biso 1.000000     C
    C   1.0     0.570098     0.837023     0.570047  Biso 1.000000     C
    C   1.0     0.743510     0.614555     0.614336  Biso 1.000000     C
    C   1.0     0.837045     0.570290     0.570086  Biso 1.000000     C
    C   1.0     0.030189     0.613588     0.613834  Biso 1.000000     C
    C   1.0     0.024772     0.569337     0.569641  Biso 1.000000     C
    C   1.0     0.614152     0.029130     0.743154  Biso 1.000000     C
    C   1.0     0.570028     0.023720     0.836752  Biso 1.000000     C
    C   1.0     0.614440     0.743262     0.028926  Biso 1.000000     C
    C   1.0     0.570308     0.836819     0.023602  Biso 1.000000     C
    C   1.0     0.428818     0.300067     0.970645  Biso 1.000000     C
    C   1.0     0.299663     0.428407     0.299663  Biso 1.000000     C
    C   1.0     0.969896     0.300229     0.429082  Biso 1.000000     C
    C   1.0     0.299732     0.971037     0.299756  Biso 1.000000     C
    C   1.0     0.429147     0.970337     0.300114  Biso 1.000000     C
    C   1.0     0.299511     0.299618     0.971219  Biso 1.000000     C
    C   1.0     0.969849     0.429264     0.300157  Biso 1.000000     C
    C   1.0     0.299606     0.299408     0.428692  Biso 1.000000     C
    C   1.0     0.428750     0.299497     0.299618  Biso 1.000000     C
    C   1.0     0.300022     0.970502     0.429131  Biso 1.000000     C
    C   1.0     0.970178     0.299901     0.299846  Biso 1.000000     C
    C   1.0     0.299854     0.429018     0.970768  Biso 1.000000     C
    C   1.0     0.700174     0.570991     0.029237  Biso 1.000000     C
    C   1.0     0.571279     0.700494     0.700367  Biso 1.000000     C
    C   1.0     0.700031     0.029475     0.570851  Biso 1.000000     C
    C   1.0     0.029871     0.700099     0.700138  Biso 1.000000     C
    C   1.0     0.030196     0.570708     0.699883  Biso 1.000000     C
    C   1.0     0.700520     0.700388     0.028783  Biso 1.000000     C
    C   1.0     0.570899     0.029646     0.699863  Biso 1.000000     C
    C   1.0     0.700445     0.700533     0.571315  Biso 1.000000     C
    C   1.0     0.700341     0.571558     0.700370  Biso 1.000000     C
    C   1.0     0.030140     0.699717     0.570934  Biso 1.000000     C
    C   1.0     0.700311     0.028947     0.700225  Biso 1.000000     C
    C   1.0     0.571214     0.699938     0.029361  Biso 1.000000     C
    O   1.0     0.386338     0.507948     0.978834  Biso 1.000000     O
    O   1.0     0.507519     0.385955     0.126499  Biso 1.000000     O
    O   1.0     0.979053     0.126438     0.385946  Biso 1.000000     O
    O   1.0     0.126618     0.979842     0.507346  Biso 1.000000     O
    O   1.0     0.386186     0.979083     0.126558  Biso 1.000000     O
    O   1.0     0.507185     0.126862     0.979383  Biso 1.000000     O
    O   1.0     0.978291     0.386650     0.507863  Biso 1.000000     O
    O   1.0     0.126630     0.507120     0.386097  Biso 1.000000     O
    O   1.0     0.386077     0.126502     0.507458  Biso 1.000000     O
    O   1.0     0.507971     0.978444     0.386550  Biso 1.000000     O
    O   1.0     0.978965     0.507510     0.126872  Biso 1.000000     O
    O   1.0     0.126343     0.385938     0.979494  Biso 1.000000     O
    O   1.0     0.492314     0.613400     0.021404  Biso 1.000000     O
    O   1.0     0.613828     0.492734     0.873330  Biso 1.000000     O
    O   1.0     0.873545     0.020514     0.613992  Biso 1.000000     O
    O   1.0     0.020950     0.873051     0.492682  Biso 1.000000     O
    O   1.0     0.021352     0.613848     0.873454  Biso 1.000000     O
    O   1.0     0.873357     0.492723     0.020288  Biso 1.000000     O
    O   1.0     0.613531     0.021514     0.491968  Biso 1.000000     O
    O   1.0     0.492578     0.873451     0.613962  Biso 1.000000     O
    O   1.0     0.873605     0.614128     0.492581  Biso 1.000000     O
    O   1.0     0.021529     0.491926     0.613606  Biso 1.000000     O
    O   1.0     0.492574     0.020535     0.873272  Biso 1.000000     O
    O   1.0     0.614107     0.873658     0.020651  Biso 1.000000     O
    O   1.0     0.613692     0.492063     0.021159  Biso 1.000000     O
    O   1.0     0.492483     0.614078     0.873515  Biso 1.000000     O
    O   1.0     0.020996     0.873541     0.614011  Biso 1.000000     O
    O   1.0     0.873430     0.020137     0.492636  Biso 1.000000     O
    O   1.0     0.613850     0.020901     0.873423  Biso 1.000000     O
    O   1.0     0.492864     0.873156     0.020568  Biso 1.000000     O
    O   1.0     0.021722     0.613270     0.492217  Biso 1.000000     O
    O   1.0     0.873398     0.492810     0.613984  Biso 1.000000     O
    O   1.0     0.614007     0.873460     0.492514  Biso 1.000000     O
    O   1.0     0.492088     0.021527     0.613426  Biso 1.000000     O
    O   1.0     0.021081     0.492517     0.873149  Biso 1.000000     O
    O   1.0     0.873686     0.614069     0.020522  Biso 1.000000     O
    O   1.0     0.507702     0.386593     0.978630  Biso 1.000000     O
    O   1.0     0.386153     0.507276     0.126686  Biso 1.000000     O
    O   1.0     0.126504     0.979464     0.385991  Biso 1.000000     O
    O   1.0     0.979092     0.126917     0.507283  Biso 1.000000     O
    O   1.0     0.978677     0.386190     0.126557  Biso 1.000000     O
    O   1.0     0.126679     0.507287     0.979717  Biso 1.000000     O
    O   1.0     0.386531     0.978462     0.508009  Biso 1.000000     O
    O   1.0     0.507492     0.126527     0.385998  Biso 1.000000     O
    O   1.0     0.126430     0.385776     0.507473  Biso 1.000000     O
    O   1.0     0.978522     0.507987     0.386469  Biso 1.000000     O
    O   1.0     0.507442     0.979507     0.126696  Biso 1.000000     O
    O   1.0     0.385920     0.126350     0.979357  Biso 1.000000     O
   Cu   1.0     0.434666     0.565340     0.000110  Biso 1.000000    Cu
   Cu   1.0     0.565341     0.434668    -0.000108  Biso 1.000000    Cu
   Cu   1.0    -0.000048    -0.000291     0.434671  Biso 1.000000    Cu
   Cu   1.0     0.000078     0.000252     0.565298  Biso 1.000000    Cu
   Cu   1.0     0.434856    -0.000281    -0.000093  Biso 1.000000    Cu
   Cu   1.0     0.565176     0.000274     0.000056  Biso 1.000000    Cu
   Cu   1.0    -0.000109     0.434636     0.565388  Biso 1.000000    Cu
   Cu   1.0     0.000124     0.565272     0.434696  Biso 1.000000    Cu
   Cu   1.0     0.434675    -0.000023     0.565366  Biso 1.000000    Cu
   Cu   1.0     0.565423    -0.000018     0.434578  Biso 1.000000    Cu
   Cu   1.0     0.000192     0.565211     0.000177  Biso 1.000000    Cu
   Cu   1.0    -0.000179     0.434805    -0.000174  Biso 1.000000    Cu
