#======================================================================

# CRYSTAL DATA

#----------------------------------------------------------------------

data_VESTA_phase_1


_pd_phase_name                         MOF
_cell_length_a                         12.77800
_cell_length_b                         12.79700
_cell_length_c                         18.44600
_cell_angle_alpha                      89.79800
_cell_angle_beta                       90.23000
_cell_angle_gamma                      120.41500
_symmetry_space_group_name_H-M         "P 1"
_symmetry_Int_Tables_number            1

loop_
_symmetry_equiv_pos_as_xyz
   "x, y, z"

loop_
   _atom_site_label
   _atom_site_occupancy
   _atom_site_fract_x
   _atom_site_fract_y
   _atom_site_fract_z
   _atom_site_adp_type
   _atom_site_B_iso_or_equiv
   _atom_site_type_symbol
    H   1.0     0.605848     0.604530     0.571538  Biso 1.000000     H
    H   1.0     0.364552     0.478686     0.647071  Biso 1.000000     H
    H   1.0     0.407168     0.568266     0.567831  Biso 1.000000     H
    H   1.0     0.305885     0.382600     0.502238  Biso 1.000000     H
    H   1.0     0.294660     0.298836     0.580892  Biso 1.000000     H
    H   1.0     0.450101     0.400710     0.409912  Biso 1.000000     H
    H   1.0     0.596590     0.429337     0.434738  Biso 1.000000     H
    H   1.0     0.547561     0.532473     0.460223  Biso 1.000000     H
    H   1.0     0.744410     0.490664     0.620650  Biso 1.000000     H
    H   1.0     0.725412     0.523411     0.529536  Biso 1.000000     H
    H   1.0     0.691170     0.374502     0.553470  Biso 1.000000     H
    H   1.0     0.571481     0.366248     0.700900  Biso 1.000000     H
    H   1.0     0.515228     0.245585     0.637585  Biso 1.000000     H
    H   1.0     0.419696     0.299275     0.670136  Biso 1.000000     H
    H   1.0    -0.002830     0.394296     0.903231  Biso 1.000000     H
    H   1.0     0.117118     0.634344     0.979830  Biso 1.000000     H
    H   1.0     0.161925     0.592672     0.899850  Biso 1.000000     H
    H   1.0     0.077780     0.695472     0.836032  Biso 1.000000     H
    H   1.0     0.006249     0.704917     0.915254  Biso 1.000000     H
    H   1.0     0.948981     0.552729     0.742990  Biso 1.000000     H
    H   1.0     0.829820     0.405980     0.767124  Biso 1.000000     H
    H   1.0     0.983110     0.454769     0.792298  Biso 1.000000     H
    H   1.0     0.743869     0.255463     0.952186  Biso 1.000000     H
    H   1.0     0.794297     0.275831     0.860909  Biso 1.000000     H
    H   1.0     0.680250     0.309638     0.885961  Biso 1.000000     H
    H   1.0     0.794726     0.426784     0.033530  Biso 1.000000     H
    H   1.0     0.730406     0.484096     0.970884  Biso 1.000000     H
    H   1.0     0.881212     0.578842     0.000000  Biso 1.000000     H
    H   1.0     0.394634     0.000000     0.237568  Biso 1.000000     H
    H   1.0     0.516876     0.884770     0.314273  Biso 1.000000     H
    H   1.0     0.427511     0.838072     0.234839  Biso 1.000000     H
    H   1.0     0.613872     0.921775     0.169920  Biso 1.000000     H
    H   1.0     0.697825     0.995010     0.248500  Biso 1.000000     H
    H   1.0     0.597740     0.047993     0.076389  Biso 1.000000     H
    H   1.0     0.571497     0.167070     0.100047  Biso 1.000000     H
    H   1.0     0.466396     0.014389     0.126385  Biso 1.000000     H
    H   1.0     0.512323     0.255762     0.285023  Biso 1.000000     H
    H   1.0     0.479299     0.203594     0.194090  Biso 1.000000     H
    H   1.0     0.629078     0.318490     0.218066  Biso 1.000000     H
    H   1.0     0.635197     0.207055     0.366170  Biso 1.000000     H
    H   1.0     0.755963     0.270831     0.302805  Biso 1.000000     H
    H   1.0     0.699891     0.120935     0.336426  Biso 1.000000     H
    H   1.0     0.000000     0.395255     0.428437  Biso 1.000000     H
    H   1.0     0.884589     0.517511     0.351465  Biso 1.000000     H
    H   1.0     0.837510     0.428347     0.430876  Biso 1.000000     H
    H   1.0     0.921441     0.614416     0.495865  Biso 1.000000     H
    H   1.0     0.994752     0.698190     0.417323  Biso 1.000000     H
    H   1.0     0.048011     0.599113     0.589538  Biso 1.000000     H
    H   1.0     0.167111     0.572585     0.566087  Biso 1.000000     H
    H   1.0     0.014120     0.467597     0.539812  Biso 1.000000     H
    H   1.0     0.255775     0.512416     0.381385  Biso 1.000000     H
    H   1.0     0.203447     0.479836     0.472290  Biso 1.000000     H
    H   1.0     0.318617     0.629262     0.448238  Biso 1.000000     H
    H   1.0     0.207339     0.635059     0.299942  Biso 1.000000     H
    H   1.0     0.271169     0.755848     0.363243  Biso 1.000000     H
    H   1.0     0.121115     0.699828     0.329422  Biso 1.000000     H
    H   1.0     0.605863     0.606633     0.096345  Biso 1.000000     H
    H   1.0     0.480845     0.365733     0.020671  Biso 1.000000     H
    H   1.0     0.570194     0.408433     0.100103  Biso 1.000000     H
    H   1.0     0.383932     0.306597     0.165272  Biso 1.000000     H
    H   1.0     0.300329     0.295092     0.086397  Biso 1.000000     H
    H   1.0     0.400376     0.449726     0.257636  Biso 1.000000     H
    H   1.0     0.428642     0.595906     0.232976  Biso 1.000000     H
    H   1.0     0.532648     0.547690     0.207845  Biso 1.000000     H
    H   1.0     0.491231     0.744312     0.047360  Biso 1.000000     H
    H   1.0     0.523754     0.725083     0.138501  Biso 1.000000     H
    H   1.0     0.374583     0.690541     0.114300  Biso 1.000000     H
    H   1.0     0.367341     0.571832     0.966692  Biso 1.000000     H
    H   1.0     0.246293     0.515269     0.029784  Biso 1.000000     H
    H   1.0     0.300447     0.420198    -0.002780  Biso 1.000000     H
    H   1.0     0.394799    -0.003327     0.762743  Biso 1.000000     H
    H   1.0     0.635678     0.115547     0.686728  Biso 1.000000     H
    H   1.0     0.593571     0.161010     0.766276  Biso 1.000000     H
    H   1.0     0.695462     0.076906     0.831109  Biso 1.000000     H
    H   1.0     0.705520     0.004979     0.752268  Biso 1.000000     H
    H   1.0     0.551449     0.948831     0.923824  Biso 1.000000     H
    H   1.0     0.404628     0.829947     0.899289  Biso 1.000000     H
    H   1.0     0.454044     0.982977     0.873776  Biso 1.000000     H
    H   1.0     0.255738     0.743431     0.713634  Biso 1.000000     H
    H   1.0     0.275350     0.794056     0.804851  Biso 1.000000     H
    H   1.0     0.309310     0.680032     0.780368  Biso 1.000000     H
    H   1.0     0.428230     0.794241     0.633034  Biso 1.000000     H
    H   1.0     0.484866     0.729886     0.696151  Biso 1.000000     H
    H   1.0     0.580203     0.880443     0.663468  Biso 1.000000     H
    H   1.0     0.960992     0.788310     0.747119  Biso 1.000000     H
    H   1.0     0.069052     0.939841     0.773409  Biso 1.000000     H
    H   1.0     0.115295     0.863604     0.711271  Biso 1.000000     H
    H   1.0     0.078586     0.074709     0.595789  Biso 1.000000     H
    H   1.0     0.182654     0.030064     0.628866  Biso 1.000000     H
    H   1.0     0.131383     0.106733     0.687711  Biso 1.000000     H
    H   1.0     0.038832     0.826086     0.587373  Biso 1.000000     H
    H   1.0     0.932520     0.870238     0.559891  Biso 1.000000     H
    H   1.0     0.884425     0.747776     0.623129  Biso 1.000000     H
    H   1.0     0.925179     0.999221     0.735986  Biso 1.000000     H
    H   1.0     0.819346     0.849247     0.704172  Biso 1.000000     H
    H   1.0     0.872261     0.977010     0.644052  Biso 1.000000     H
    H   1.0     0.827027     0.038993     0.079433  Biso 1.000000     H
    H   1.0     0.871793     0.933191     0.106803  Biso 1.000000     H
    H   1.0     0.748827     0.884710     0.043724  Biso 1.000000     H
    H   1.0     0.000000     0.925944     0.930515  Biso 1.000000     H
    H   1.0     0.850430     0.820004     0.962493  Biso 1.000000     H
    H   1.0     0.978694     0.873261     0.000000  Biso 1.000000     H
    H   1.0     0.788666     0.961015     0.919747  Biso 1.000000     H
    H   1.0     0.940208     0.069049     0.893253  Biso 1.000000     H
    H   1.0     0.864059     0.115231     0.955514  Biso 1.000000     H
    H   1.0     0.076292     0.079227     0.070655  Biso 1.000000     H
    H   1.0     0.031074     0.182871     0.037808  Biso 1.000000     H
    H   1.0     0.107782     0.131925    -0.021258  Biso 1.000000     H
    H   1.0     0.212792     0.174356     0.413250  Biso 1.000000     H
    H   1.0     0.061385     0.129669     0.439645  Biso 1.000000     H
    H   1.0     0.137544     0.252362     0.376687  Biso 1.000000     H
    H   1.0     0.924811     0.001240     0.262743  Biso 1.000000     H
    H   1.0     0.970336     0.150890     0.294680  Biso 1.000000     H
    H   1.0     0.893528     0.022736     0.354386  Biso 1.000000     H
    H   1.0     0.174317     0.212415     0.253139  Biso 1.000000     H
    H   1.0     0.129118     0.061043     0.226865  Biso 1.000000     H
    H   1.0     0.252218     0.137065     0.289744  Biso 1.000000     H
    H   1.0     0.000810     0.925433     0.403863  Biso 1.000000     H
    H   1.0     0.150533     0.970470     0.371903  Biso 1.000000     H
    H   1.0     0.022022     0.893801     0.312242  Biso 1.000000     H
    C   1.0     0.464895     0.364726     0.523836  Biso 1.000000     C
    C   1.0     0.556655     0.418347     0.590260  Biso 1.000000     C
    C   1.0     0.546231     0.532131     0.609339  Biso 1.000000     C
    C   1.0     0.412456     0.494837     0.595352  Biso 1.000000     C
    C   1.0     0.357392     0.378501     0.548898  Biso 1.000000     C
    C   1.0     0.519006     0.436448     0.453158  Biso 1.000000     C
    C   1.0     0.687178     0.453795     0.572097  Biso 1.000000     C
    C   1.0     0.512475     0.326815     0.653323  Biso 1.000000     C
    C   1.0     0.430837     0.233592     0.510053  Biso 1.000000     C
    C   1.0     0.594860     0.580952     0.684632  Biso 1.000000     C
    C   1.0     0.899385     0.536058     0.857019  Biso 1.000000     C
    C   1.0     0.860931     0.443398     0.922807  Biso 1.000000     C
    C   1.0     0.985674     0.453511     0.941421  Biso 1.000000     C
    C   1.0     0.083686     0.587226     0.927929  Biso 1.000000     C
    C   1.0     0.022209     0.643028     0.882470  Biso 1.000000     C
    C   1.0     0.915664     0.483248     0.785804  Biso 1.000000     C
    C   1.0     0.764032     0.313345     0.904032  Biso 1.000000     C
    C   1.0     0.814655     0.486528     0.986388  Biso 1.000000     C
    C   1.0     0.802424     0.570200     0.843893  Biso 1.000000     C
    C   1.0     0.986045     0.404233     0.016432  Biso 1.000000     C
    C   1.0     0.634475     0.099889     0.190023  Biso 1.000000     C
    C   1.0     0.582058     0.139045     0.255880  Biso 1.000000     C
    C   1.0     0.466787     0.014564     0.275474  Biso 1.000000     C
    C   1.0     0.501800     0.916962     0.262281  Biso 1.000000     C
    C   1.0     0.618609     0.977997     0.216085  Biso 1.000000     C
    C   1.0     0.562917     0.081906     0.119173  Biso 1.000000     C
    C   1.0     0.548741     0.234969     0.236829  Biso 1.000000     C
    C   1.0     0.673829     0.186720     0.318930  Biso 1.000000     C
    C   1.0     0.766345     0.197014     0.175969  Biso 1.000000     C
    C   1.0     0.418666     0.015054     0.350644  Biso 1.000000     C
    C   1.0     0.099842     0.635047     0.475884  Biso 1.000000     C
    C   1.0     0.138999     0.582353     0.410179  Biso 1.000000     C
    C   1.0     0.014288     0.467288     0.390494  Biso 1.000000     C
    C   1.0     0.916644     0.502443     0.403525  Biso 1.000000     C
    C   1.0     0.977769     0.619131     0.449729  Biso 1.000000     C
    C   1.0     0.081836     0.563994     0.546875  Biso 1.000000     C
    C   1.0     0.234949     0.549008     0.429476  Biso 1.000000     C
    C   1.0     0.186935     0.673812     0.347084  Biso 1.000000     C
    C   1.0     0.197125     0.766784     0.489869  Biso 1.000000     C
    C   1.0     0.014662     0.419091     0.315310  Biso 1.000000     C
    C   1.0     0.365283     0.464859     0.143575  Biso 1.000000     C
    C   1.0     0.419204     0.556803     0.077391  Biso 1.000000     C
    C   1.0     0.533472     0.546870     0.058508  Biso 1.000000     C
    C   1.0     0.496592     0.413417     0.072429  Biso 1.000000     C
    C   1.0     0.379810     0.357929     0.118585  Biso 1.000000     C
    C   1.0     0.436311     0.518745     0.214546  Biso 1.000000     C
    C   1.0     0.454241     0.686933     0.095789  Biso 1.000000     C
    C   1.0     0.327788     0.512744     0.014148  Biso 1.000000     C
    C   1.0     0.233712     0.430367     0.156663  Biso 1.000000     C
    C   1.0     0.581990     0.595296     0.983211  Biso 1.000000     C
    C   1.0     0.535820     0.898785     0.809923  Biso 1.000000     C
    C   1.0     0.443711     0.860322     0.743685  Biso 1.000000     C
    C   1.0     0.454154     0.984904     0.724751  Biso 1.000000     C
    C   1.0     0.588068     0.082595     0.738520  Biso 1.000000     C
    C   1.0     0.643331     0.021241     0.784593  Biso 1.000000     C
    C   1.0     0.482294     0.915503     0.880724  Biso 1.000000     C
    C   1.0     0.313267     0.763671     0.762030  Biso 1.000000     C
    C   1.0     0.487532     0.814042     0.680471  Biso 1.000000     C
    C   1.0     0.569676     0.801833     0.823742  Biso 1.000000     C
    C   1.0     0.405149     0.985505     0.649598  Biso 1.000000     C
    C   1.0     0.039232     0.873792     0.729215  Biso 1.000000     C
    C   1.0     0.106366     0.042307     0.642926  Biso 1.000000     C
    C   1.0     0.961357     0.834064     0.604688  Biso 1.000000     C
    C   1.0     0.896473     0.937864     0.689465  Biso 1.000000     C
    C   1.0     0.835213     0.961742     0.062071  Biso 1.000000     C
    C   1.0     0.939130     0.897202     0.977110  Biso 1.000000     C
    C   1.0     0.874286     0.039297     0.937541  Biso 1.000000     C
    C   1.0     0.043476     0.106826     0.023628  Biso 1.000000     C
    C   1.0     0.127191     0.166138     0.395266  Biso 1.000000     C
    C   1.0     0.957801     0.062303     0.309422  Biso 1.000000     C
    C   1.0     0.165912     0.126911     0.271187  Biso 1.000000     C
    C   1.0     0.061862     0.958106     0.357163  Biso 1.000000     C
    N   1.0     0.000829     0.922716     0.666571  Biso 1.000000     N
    N   1.0     0.923732     0.001244     0.000085  Biso 1.000000     N
    N   1.0     0.077463     0.077647     0.333257  Biso 1.000000     N
    O   1.0     0.321431     0.146096     0.522115  Biso 1.000000     O
    O   1.0     0.511046     0.211065     0.487839  Biso 1.000000     O
    O   1.0     0.518318     0.542711     0.737717  Biso 1.000000     O
    O   1.0     0.706634     0.654619     0.694039  Biso 1.000000     O
    O   1.0     0.825733     0.679345     0.856243  Biso 1.000000     O
    O   1.0     0.698242     0.490073     0.821801  Biso 1.000000     O
    O   1.0     0.025275     0.480370     0.069748  Biso 1.000000     O
    O   1.0     0.947147     0.292688     0.025422  Biso 1.000000     O
    O   1.0     0.852776     0.174512     0.188200  Biso 1.000000     O
    O   1.0     0.790559     0.300503     0.153400  Biso 1.000000     O
    O   1.0     0.456907     0.977343     0.404091  Biso 1.000000     O
    O   1.0     0.345633     0.052953     0.359629  Biso 1.000000     O
    O   1.0     0.174488     0.853032     0.477749  Biso 1.000000     O
    O   1.0     0.300850     0.791008     0.512364  Biso 1.000000     O
    O   1.0     0.976964     0.457255     0.261849  Biso 1.000000     O
    O   1.0     0.052401     0.345959     0.306263  Biso 1.000000     O
    O   1.0     0.146408     0.321169     0.144142  Biso 1.000000     O
    O   1.0     0.210684     0.510284     0.178643  Biso 1.000000     O
    O   1.0     0.543245     0.518684     0.930188  Biso 1.000000     O
    O   1.0     0.655705     0.706862     0.973655  Biso 1.000000     O
    O   1.0     0.678904     0.824740     0.811425  Biso 1.000000     O
    O   1.0     0.489499     0.698247     0.846346  Biso 1.000000     O
    O   1.0     0.481483     0.024785     0.596375  Biso 1.000000     O
    O   1.0     0.293486     0.946950     0.640414  Biso 1.000000     O
   In   1.0     0.370115     0.000604     0.500128  Biso 1.000000    In
   In   1.0     0.630195     0.630121     0.833948  Biso 1.000000    In
   In   1.0     0.000507     0.369772     0.166154  Biso 1.000000    In
