#======================================================================

# CRYSTAL DATA

#----------------------------------------------------------------------

data_VESTA_phase_1


_pd_phase_name                         MOF
_cell_length_a                         17.03400
_cell_length_b                         19.33100
_cell_length_c                         22.72100
_cell_angle_alpha                      98.13200
_cell_angle_beta                       90.03200
_cell_angle_gamma                      116.09500
_symmetry_space_group_name_H-M         "P 1"
_symmetry_Int_Tables_number            1

loop_
_symmetry_equiv_pos_as_xyz
   "x, y, z"

loop_
   _atom_site_label
   _atom_site_occupancy
   _atom_site_fract_x
   _atom_site_fract_y
   _atom_site_fract_z
   _atom_site_adp_type
   _atom_site_B_iso_or_equiv
   _atom_site_type_symbol
    H   1.0     0.564826     0.129838     0.321521  Biso 1.000000     H
    H   1.0     0.564824     0.129839     0.821521  Biso 1.000000     H
    H   1.0     0.564825     0.629837     0.321522  Biso 1.000000     H
    H   1.0     0.564823     0.629838     0.821522  Biso 1.000000     H
    H   1.0     0.000000     0.129836     0.321521  Biso 1.000000     H
    H   1.0     0.000000     0.129838     0.821521  Biso 1.000000     H
    H   1.0     0.000000     0.629836     0.321521  Biso 1.000000     H
    H   1.0     0.000000     0.629837     0.821521  Biso 1.000000     H
    H   1.0     0.076133     0.206820     0.295403  Biso 1.000000     H
    H   1.0     0.076131     0.206823     0.795404  Biso 1.000000     H
    H   1.0     0.076130     0.706819     0.295403  Biso 1.000000     H
    H   1.0     0.076128     0.706822     0.795404  Biso 1.000000     H
    H   1.0     0.576135     0.206821     0.295402  Biso 1.000000     H
    H   1.0     0.576133     0.206823     0.795404  Biso 1.000000     H
    H   1.0     0.576132     0.706819     0.295402  Biso 1.000000     H
    H   1.0     0.576130     0.706822     0.795404  Biso 1.000000     H
    H   1.0     0.176444     0.029260     0.419493  Biso 1.000000     H
    H   1.0     0.176443     0.029262     0.919494  Biso 1.000000     H
    H   1.0     0.176440     0.529259     0.419493  Biso 1.000000     H
    H   1.0     0.176439     0.529262     0.919494  Biso 1.000000     H
    H   1.0     0.676445     0.029259     0.419493  Biso 1.000000     H
    H   1.0     0.676444     0.029261     0.919494  Biso 1.000000     H
    H   1.0     0.676442     0.529260     0.419493  Biso 1.000000     H
    H   1.0     0.676441     0.529262     0.919494  Biso 1.000000     H
    H   1.0     0.434944     0.370283     0.428578  Biso 1.000000     H
    H   1.0     0.434941     0.370285     0.928579  Biso 1.000000     H
    H   1.0     0.434942     0.870282     0.428577  Biso 1.000000     H
    H   1.0     0.434939     0.870283     0.928578  Biso 1.000000     H
    H   1.0     0.934947     0.370283     0.428578  Biso 1.000000     H
    H   1.0     0.934944     0.370284     0.928579  Biso 1.000000     H
    H   1.0     0.934945     0.870282     0.428578  Biso 1.000000     H
    H   1.0     0.934942     0.870284     0.928578  Biso 1.000000     H
    H   1.0     0.369449     0.293254     0.454690  Biso 1.000000     H
    H   1.0     0.369446     0.293256     0.954690  Biso 1.000000     H
    H   1.0     0.369446     0.793254     0.454689  Biso 1.000000     H
    H   1.0     0.369444     0.793255     0.954690  Biso 1.000000     H
    H   1.0     0.869450     0.293254     0.454689  Biso 1.000000     H
    H   1.0     0.869448     0.293255     0.954689  Biso 1.000000     H
    H   1.0     0.869448     0.793254     0.454689  Biso 1.000000     H
    H   1.0     0.869446     0.793255     0.954690  Biso 1.000000     H
    H   1.0     0.147411     0.471046     0.330540  Biso 1.000000     H
    H   1.0     0.147410     0.471046     0.830540  Biso 1.000000     H
    H   1.0     0.147408     0.971045     0.330539  Biso 1.000000     H
    H   1.0     0.147406     0.971045     0.830540  Biso 1.000000     H
    H   1.0     0.647413     0.471046     0.330539  Biso 1.000000     H
    H   1.0     0.647411     0.471046     0.830540  Biso 1.000000     H
    H   1.0     0.647409     0.971044     0.330539  Biso 1.000000     H
    H   1.0     0.647407     0.971045     0.830539  Biso 1.000000     H
    H   1.0    -0.064839     0.370155     0.178473  Biso 1.000000     H
    H   1.0    -0.064841     0.370157     0.678472  Biso 1.000000     H
    H   1.0    -0.064841     0.870155     0.178473  Biso 1.000000     H
    H   1.0    -0.064843     0.870156     0.678473  Biso 1.000000     H
    H   1.0     0.435163     0.370155     0.178472  Biso 1.000000     H
    H   1.0     0.435161     0.370156     0.678472  Biso 1.000000     H
    H   1.0     0.435161     0.870154     0.178473  Biso 1.000000     H
    H   1.0     0.435159     0.870156     0.678473  Biso 1.000000     H
    H   1.0     0.423858     0.293176     0.204596  Biso 1.000000     H
    H   1.0     0.423856     0.293178     0.704597  Biso 1.000000     H
    H   1.0     0.423855     0.793175     0.204596  Biso 1.000000     H
    H   1.0     0.423853     0.793177     0.704597  Biso 1.000000     H
    H   1.0     0.923861     0.293177     0.204596  Biso 1.000000     H
    H   1.0     0.923859     0.293179     0.704598  Biso 1.000000     H
    H   1.0     0.923858     0.793176     0.204596  Biso 1.000000     H
    H   1.0     0.923857     0.793178     0.704597  Biso 1.000000     H
    H   1.0     0.323548     0.470730     0.080505  Biso 1.000000     H
    H   1.0     0.323548     0.470732     0.580505  Biso 1.000000     H
    H   1.0     0.323545     0.970730     0.080505  Biso 1.000000     H
    H   1.0     0.323544     0.970732     0.580505  Biso 1.000000     H
    H   1.0     0.823551     0.470732     0.080504  Biso 1.000000     H
    H   1.0     0.823550     0.470734     0.580505  Biso 1.000000     H
    H   1.0     0.823547     0.970732     0.080505  Biso 1.000000     H
    H   1.0     0.823547     0.970734     0.580505  Biso 1.000000     H
    H   1.0     0.065043     0.129709     0.071421  Biso 1.000000     H
    H   1.0     0.065040     0.129710     0.571421  Biso 1.000000     H
    H   1.0     0.065040     0.629708     0.071420  Biso 1.000000     H
    H   1.0     0.065038     0.629710     0.571421  Biso 1.000000     H
    H   1.0     0.565046     0.129710     0.071420  Biso 1.000000     H
    H   1.0     0.565044     0.129711     0.571421  Biso 1.000000     H
    H   1.0     0.565043     0.629708     0.071420  Biso 1.000000     H
    H   1.0     0.565041     0.629710     0.571421  Biso 1.000000     H
    H   1.0     0.130540     0.206737     0.045309  Biso 1.000000     H
    H   1.0     0.130537     0.206738     0.545309  Biso 1.000000     H
    H   1.0     0.130537     0.706736     0.045308  Biso 1.000000     H
    H   1.0     0.130535     0.706738     0.545309  Biso 1.000000     H
    H   1.0     0.630543     0.206738     0.045309  Biso 1.000000     H
    H   1.0     0.630541     0.206739     0.545309  Biso 1.000000     H
    H   1.0     0.630540     0.706737     0.045309  Biso 1.000000     H
    H   1.0     0.630538     0.706739     0.545309  Biso 1.000000     H
    H   1.0     0.352580     0.028945     0.169458  Biso 1.000000     H
    H   1.0     0.352578     0.028946     0.669458  Biso 1.000000     H
    H   1.0     0.352576     0.528944     0.169457  Biso 1.000000     H
    H   1.0     0.352574     0.528945     0.669458  Biso 1.000000     H
    H   1.0     0.852583     0.028947     0.169458  Biso 1.000000     H
    H   1.0     0.852581     0.028948     0.669458  Biso 1.000000     H
    H   1.0     0.852579     0.528946     0.169458  Biso 1.000000     H
    H   1.0     0.852577     0.528947     0.669458  Biso 1.000000     H
    C   1.0     0.098438     0.377408     0.428976  Biso 1.000000     C
    C   1.0     0.098437     0.377411     0.928976  Biso 1.000000     C
    C   1.0     0.098437     0.877408     0.428973  Biso 1.000000     C
    C   1.0     0.098436     0.877411     0.928974  Biso 1.000000     C
    C   1.0     0.598439     0.377408     0.428978  Biso 1.000000     C
    C   1.0     0.598438     0.377410     0.928979  Biso 1.000000     C
    C   1.0     0.598433     0.877406     0.428980  Biso 1.000000     C
    C   1.0     0.598433     0.877408     0.928981  Biso 1.000000     C
    C   1.0     0.174387     0.440638     0.467745  Biso 1.000000     C
    C   1.0     0.174386     0.440640     0.967746  Biso 1.000000     C
    C   1.0     0.174384     0.940636     0.467746  Biso 1.000000     C
    C   1.0     0.174383     0.940639     0.967747  Biso 1.000000     C
    C   1.0     0.674389     0.440641     0.467744  Biso 1.000000     C
    C   1.0     0.674388     0.440643     0.967745  Biso 1.000000     C
    C   1.0     0.674385     0.940641     0.467744  Biso 1.000000     C
    C   1.0     0.674384     0.940643     0.967745  Biso 1.000000     C
    C   1.0     0.214907     0.423657     0.014089  Biso 1.000000     C
    C   1.0     0.214904     0.423659     0.514091  Biso 1.000000     C
    C   1.0     0.214906     0.923657     0.014090  Biso 1.000000     C
    C   1.0     0.214903     0.923659     0.514091  Biso 1.000000     C
    C   1.0     0.714906     0.423657     0.014088  Biso 1.000000     C
    C   1.0     0.714904     0.423659     0.514089  Biso 1.000000     C
    C   1.0     0.714900     0.923656     0.014088  Biso 1.000000     C
    C   1.0     0.714898     0.923658     0.514089  Biso 1.000000     C
    C   1.0     0.209184     0.016893     0.454892  Biso 1.000000     C
    C   1.0     0.209183     0.016895     0.954893  Biso 1.000000     C
    C   1.0     0.209182     0.516894     0.454892  Biso 1.000000     C
    C   1.0     0.209180     0.516896     0.954893  Biso 1.000000     C
    C   1.0     0.709191     0.016899     0.454893  Biso 1.000000     C
    C   1.0     0.709190     0.016901     0.954894  Biso 1.000000     C
    C   1.0     0.709186     0.516898     0.454893  Biso 1.000000     C
    C   1.0     0.709185     0.516900     0.954894  Biso 1.000000     C
    C   1.0     0.174737     0.345555     0.035664  Biso 1.000000     C
    C   1.0     0.174736     0.345558     0.535666  Biso 1.000000     C
    C   1.0     0.174730     0.845553     0.035662  Biso 1.000000     C
    C   1.0     0.174728     0.845555     0.535663  Biso 1.000000     C
    C   1.0     0.674746     0.345559     0.035668  Biso 1.000000     C
    C   1.0     0.674744     0.345561     0.535670  Biso 1.000000     C
    C   1.0     0.674746     0.845559     0.035671  Biso 1.000000     C
    C   1.0     0.674744     0.845562     0.535673  Biso 1.000000     C
    C   1.0     0.221411     0.122832     0.321051  Biso 1.000000     C
    C   1.0     0.221410     0.122833     0.821052  Biso 1.000000     C
    C   1.0     0.221409     0.622830     0.321053  Biso 1.000000     C
    C   1.0     0.221408     0.622831     0.821054  Biso 1.000000     C
    C   1.0     0.721416     0.122829     0.321058  Biso 1.000000     C
    C   1.0     0.721415     0.122830     0.821059  Biso 1.000000     C
    C   1.0     0.721413     0.622830     0.321057  Biso 1.000000     C
    C   1.0     0.721411     0.622831     0.821057  Biso 1.000000     C
    C   1.0     0.233985     0.059510     0.282276  Biso 1.000000     C
    C   1.0     0.233983     0.059511     0.782276  Biso 1.000000     C
    C   1.0     0.233983     0.559510     0.282275  Biso 1.000000     C
    C   1.0     0.233981     0.559511     0.782276  Biso 1.000000     C
    C   1.0     0.733991     0.059515     0.282273  Biso 1.000000     C
    C   1.0     0.733989     0.059515     0.782274  Biso 1.000000     C
    C   1.0     0.733987     0.559513     0.282274  Biso 1.000000     C
    C   1.0     0.733986     0.559514     0.782274  Biso 1.000000     C
    C   1.0     0.291399     0.076337     0.235936  Biso 1.000000     C
    C   1.0     0.291398     0.076337     0.735937  Biso 1.000000     C
    C   1.0     0.291397     0.576335     0.235936  Biso 1.000000     C
    C   1.0     0.291396     0.576336     0.735936  Biso 1.000000     C
    C   1.0     0.791407     0.076336     0.235934  Biso 1.000000     C
    C   1.0     0.791406     0.076337     0.735935  Biso 1.000000     C
    C   1.0     0.791403     0.576336     0.235935  Biso 1.000000     C
    C   1.0     0.791402     0.576337     0.735935  Biso 1.000000     C
    C   1.0     0.192429     0.483265     0.295131  Biso 1.000000     C
    C   1.0     0.192428     0.483266     0.795131  Biso 1.000000     C
    C   1.0     0.192425     0.983263     0.295130  Biso 1.000000     C
    C   1.0     0.192424     0.983264     0.795131  Biso 1.000000     C
    C   1.0     0.692432     0.483269     0.295131  Biso 1.000000     C
    C   1.0     0.692430     0.483270     0.795132  Biso 1.000000     C
    C   1.0     0.692428     0.983269     0.295131  Biso 1.000000     C
    C   1.0     0.692426     0.983270     0.795132  Biso 1.000000     C
    C   1.0     0.329425     0.154409     0.214324  Biso 1.000000     C
    C   1.0     0.329424     0.154410     0.714326  Biso 1.000000     C
    C   1.0     0.329419     0.654410     0.214327  Biso 1.000000     C
    C   1.0     0.329419     0.654411     0.714328  Biso 1.000000     C
    C   1.0     0.829420     0.154416     0.214334  Biso 1.000000     C
    C   1.0     0.829419     0.154417     0.714335  Biso 1.000000     C
    C   1.0     0.829419     0.654414     0.214331  Biso 1.000000     C
    C   1.0     0.829418     0.654415     0.714332  Biso 1.000000     C
    C   1.0     0.401550     0.122583     0.071025  Biso 1.000000     C
    C   1.0     0.401549     0.122585     0.571026  Biso 1.000000     C
    C   1.0     0.401549     0.622582     0.071023  Biso 1.000000     C
    C   1.0     0.401548     0.622585     0.571024  Biso 1.000000     C
    C   1.0     0.901558     0.122586     0.071019  Biso 1.000000     C
    C   1.0     0.901557     0.122588     0.571019  Biso 1.000000     C
    C   1.0     0.901553     0.622585     0.071021  Biso 1.000000     C
    C   1.0     0.901552     0.622587     0.571021  Biso 1.000000     C
    C   1.0     0.325605     0.059354     0.032252  Biso 1.000000     C
    C   1.0     0.325604     0.059356     0.532253  Biso 1.000000     C
    C   1.0     0.325601     0.559352     0.032253  Biso 1.000000     C
    C   1.0     0.325600     0.559354     0.532254  Biso 1.000000     C
    C   1.0     0.825608     0.059350     0.032254  Biso 1.000000     C
    C   1.0     0.825606     0.059352     0.532255  Biso 1.000000     C
    C   1.0     0.825604     0.559351     0.032253  Biso 1.000000     C
    C   1.0     0.825603     0.559353     0.532255  Biso 1.000000     C
    C   1.0     0.285084     0.076333     0.485907  Biso 1.000000     C
    C   1.0     0.285082     0.076336     0.985909  Biso 1.000000     C
    C   1.0     0.285083     0.576333     0.485908  Biso 1.000000     C
    C   1.0     0.285080     0.576335     0.985909  Biso 1.000000     C
    C   1.0     0.785093     0.076335     0.485910  Biso 1.000000     C
    C   1.0     0.785091     0.076337     0.985911  Biso 1.000000     C
    C   1.0     0.785088     0.576334     0.485909  Biso 1.000000     C
    C   1.0     0.785086     0.576337     0.985910  Biso 1.000000     C
    C   1.0     0.290807     0.483096     0.045105  Biso 1.000000     C
    C   1.0     0.290806     0.483097     0.545106  Biso 1.000000     C
    C   1.0     0.290805     0.983097     0.045105  Biso 1.000000     C
    C   1.0     0.290804     0.983099     0.545106  Biso 1.000000     C
    C   1.0     0.790808     0.483094     0.045105  Biso 1.000000     C
    C   1.0     0.790806     0.483096     0.545106  Biso 1.000000     C
    C   1.0     0.790802     0.983092     0.045105  Biso 1.000000     C
    C   1.0     0.790800     0.983094     0.545106  Biso 1.000000     C
    C   1.0     0.325259     0.154438     0.464337  Biso 1.000000     C
    C   1.0     0.325256     0.154440     0.964338  Biso 1.000000     C
    C   1.0     0.325251     0.654435     0.464334  Biso 1.000000     C
    C   1.0     0.325249     0.654438     0.964336  Biso 1.000000     C
    C   1.0     0.825247     0.154432     0.464327  Biso 1.000000     C
    C   1.0     0.825244     0.154434     0.964329  Biso 1.000000     C
    C   1.0     0.825247     0.654433     0.464330  Biso 1.000000     C
    C   1.0     0.825245     0.654436     0.964332  Biso 1.000000     C
    C   1.0     0.278579     0.377159     0.178945  Biso 1.000000     C
    C   1.0     0.278578     0.377160     0.678946  Biso 1.000000     C
    C   1.0     0.278577     0.877158     0.178947  Biso 1.000000     C
    C   1.0     0.278576     0.877159     0.678948  Biso 1.000000     C
    C   1.0     0.778581     0.377162     0.178942  Biso 1.000000     C
    C   1.0     0.778579     0.377162     0.678942  Biso 1.000000     C
    C   1.0     0.778576     0.877162     0.178940  Biso 1.000000     C
    C   1.0     0.778575     0.877163     0.678940  Biso 1.000000     C
    C   1.0     0.266005     0.440479     0.217722  Biso 1.000000     C
    C   1.0     0.266004     0.440480     0.717723  Biso 1.000000     C
    C   1.0     0.266003     0.940481     0.217722  Biso 1.000000     C
    C   1.0     0.266002     0.940481     0.717722  Biso 1.000000     C
    C   1.0     0.766006     0.440479     0.217723  Biso 1.000000     C
    C   1.0     0.766004     0.440479     0.717724  Biso 1.000000     C
    C   1.0     0.766001     0.940477     0.217724  Biso 1.000000     C
    C   1.0     0.766000     0.940478     0.717725  Biso 1.000000     C
    C   1.0     0.208590     0.423655     0.264062  Biso 1.000000     C
    C   1.0     0.208589     0.423655     0.764062  Biso 1.000000     C
    C   1.0     0.208589     0.923654     0.264061  Biso 1.000000     C
    C   1.0     0.208588     0.923654     0.764062  Biso 1.000000     C
    C   1.0     0.708590     0.423656     0.264062  Biso 1.000000     C
    C   1.0     0.708588     0.423657     0.764063  Biso 1.000000     C
    C   1.0     0.708584     0.923655     0.264063  Biso 1.000000     C
    C   1.0     0.708583     0.923656     0.764063  Biso 1.000000     C
    C   1.0     0.307562     0.016727     0.204867  Biso 1.000000     C
    C   1.0     0.307561     0.016728     0.704867  Biso 1.000000     C
    C   1.0     0.307558     0.516724     0.204866  Biso 1.000000     C
    C   1.0     0.307556     0.516725     0.704867  Biso 1.000000     C
    C   1.0     0.807563     0.016722     0.204866  Biso 1.000000     C
    C   1.0     0.807562     0.016723     0.704866  Biso 1.000000     C
    C   1.0     0.807560     0.516723     0.204866  Biso 1.000000     C
    C   1.0     0.807559     0.516723     0.704866  Biso 1.000000     C
    C   1.0     0.170569     0.345580     0.285671  Biso 1.000000     C
    C   1.0     0.170568     0.345581     0.785672  Biso 1.000000     C
    C   1.0     0.170564     0.845582     0.285674  Biso 1.000000     C
    C   1.0     0.170563     0.845583     0.785675  Biso 1.000000     C
    C   1.0     0.670575     0.345579     0.285667  Biso 1.000000     C
    C   1.0     0.670574     0.345580     0.785668  Biso 1.000000     C
    C   1.0     0.670574     0.845576     0.285664  Biso 1.000000     C
    C   1.0     0.670572     0.845577     0.785666  Biso 1.000000     C
    O   1.0     0.089676     0.307383     0.424586  Biso 1.000000     O
    O   1.0     0.089675     0.307385     0.924587  Biso 1.000000     O
    O   1.0     0.089673     0.807383     0.424586  Biso 1.000000     O
    O   1.0     0.089672     0.807385     0.924587  Biso 1.000000     O
    O   1.0     0.589678     0.307382     0.424586  Biso 1.000000     O
    O   1.0     0.589676     0.307384     0.924587  Biso 1.000000     O
    O   1.0     0.589675     0.807380     0.424585  Biso 1.000000     O
    O   1.0     0.589673     0.807382     0.924586  Biso 1.000000     O
    O   1.0     0.047100     0.394396     0.399937  Biso 1.000000     O
    O   1.0     0.047097     0.394398     0.899938  Biso 1.000000     O
    O   1.0     0.047094     0.894395     0.399937  Biso 1.000000     O
    O   1.0     0.047093     0.894397     0.899938  Biso 1.000000     O
    O   1.0     0.547104     0.394397     0.399937  Biso 1.000000     O
    O   1.0     0.547102     0.394399     0.899938  Biso 1.000000     O
    O   1.0     0.547102     0.894396     0.399936  Biso 1.000000     O
    O   1.0     0.547100     0.894398     0.899938  Biso 1.000000     O
    O   1.0     0.204114     0.295388     0.017478  Biso 1.000000     O
    O   1.0     0.204112     0.295390     0.517479  Biso 1.000000     O
    O   1.0     0.204113     0.795389     0.017479  Biso 1.000000     O
    O   1.0     0.204111     0.795391     0.517480  Biso 1.000000     O
    O   1.0     0.704115     0.295387     0.017477  Biso 1.000000     O
    O   1.0     0.704112     0.295390     0.517478  Biso 1.000000     O
    O   1.0     0.704110     0.795385     0.017476  Biso 1.000000     O
    O   1.0     0.704108     0.795388     0.517478  Biso 1.000000     O
    O   1.0     0.117506     0.335835     0.072651  Biso 1.000000     O
    O   1.0     0.117504     0.335838     0.572652  Biso 1.000000     O
    O   1.0     0.117506     0.835835     0.072652  Biso 1.000000     O
    O   1.0     0.117504     0.835838     0.572654  Biso 1.000000     O
    O   1.0     0.617505     0.335835     0.072647  Biso 1.000000     O
    O   1.0     0.617503     0.335838     0.572649  Biso 1.000000     O
    O   1.0     0.617499     0.835833     0.072646  Biso 1.000000     O
    O   1.0     0.617498     0.835836     0.572647  Biso 1.000000     O
    O   1.0     0.050458     0.174360     0.327108  Biso 1.000000     O
    O   1.0     0.050457     0.174363     0.827110  Biso 1.000000     O
    O   1.0     0.050455     0.674360     0.327108  Biso 1.000000     O
    O   1.0     0.050454     0.674362     0.827110  Biso 1.000000     O
    O   1.0     0.550461     0.174362     0.327109  Biso 1.000000     O
    O   1.0     0.550460     0.174364     0.827110  Biso 1.000000     O
    O   1.0     0.550458     0.674360     0.327109  Biso 1.000000     O
    O   1.0     0.550457     0.674363     0.827110  Biso 1.000000     O
    O   1.0     0.282553     0.192860     0.325407  Biso 1.000000     O
    O   1.0     0.282551     0.192860     0.825408  Biso 1.000000     O
    O   1.0     0.282549     0.692858     0.325407  Biso 1.000000     O
    O   1.0     0.282548     0.692859     0.825407  Biso 1.000000     O
    O   1.0     0.782553     0.192858     0.325405  Biso 1.000000     O
    O   1.0     0.782551     0.192859     0.825406  Biso 1.000000     O
    O   1.0     0.782550     0.692859     0.325406  Biso 1.000000     O
    O   1.0     0.782549     0.692859     0.825406  Biso 1.000000     O
    O   1.0     0.153206     0.105849     0.350142  Biso 1.000000     O
    O   1.0     0.153205     0.105850     0.850142  Biso 1.000000     O
    O   1.0     0.153202     0.605849     0.350142  Biso 1.000000     O
    O   1.0     0.153200     0.605850     0.850142  Biso 1.000000     O
    O   1.0     0.653204     0.105851     0.350141  Biso 1.000000     O
    O   1.0     0.653202     0.105852     0.850142  Biso 1.000000     O
    O   1.0     0.653203     0.605851     0.350141  Biso 1.000000     O
    O   1.0     0.653201     0.605851     0.850142  Biso 1.000000     O
    O   1.0     0.408932     0.204468     0.232537  Biso 1.000000     O
    O   1.0     0.408931     0.204469     0.732538  Biso 1.000000     O
    O   1.0     0.408929     0.704466     0.232536  Biso 1.000000     O
    O   1.0     0.408928     0.704467     0.732537  Biso 1.000000     O
    O   1.0     0.908935     0.204465     0.232534  Biso 1.000000     O
    O   1.0     0.908934     0.204466     0.732535  Biso 1.000000     O
    O   1.0     0.908932     0.704465     0.232535  Biso 1.000000     O
    O   1.0     0.908932     0.704466     0.732536  Biso 1.000000     O
    O   1.0     0.282010     0.164197     0.177254  Biso 1.000000     O
    O   1.0     0.282009     0.164199     0.677254  Biso 1.000000     O
    O   1.0     0.282009     0.664196     0.177252  Biso 1.000000     O
    O   1.0     0.282008     0.664197     0.677252  Biso 1.000000     O
    O   1.0     0.782018     0.164196     0.177247  Biso 1.000000     O
    O   1.0     0.782018     0.164198     0.677248  Biso 1.000000     O
    O   1.0     0.782014     0.664197     0.177249  Biso 1.000000     O
    O   1.0     0.782014     0.664198     0.677249  Biso 1.000000     O
    O   1.0     0.376130     0.325738     0.423000  Biso 1.000000     O
    O   1.0     0.376128     0.325739     0.923000  Biso 1.000000     O
    O   1.0     0.376127     0.825738     0.423000  Biso 1.000000     O
    O   1.0     0.376125     0.825739     0.923000  Biso 1.000000     O
    O   1.0     0.876132     0.325739     0.422999  Biso 1.000000     O
    O   1.0     0.876130     0.325739     0.922999  Biso 1.000000     O
    O   1.0     0.876130     0.825739     0.422999  Biso 1.000000     O
    O   1.0     0.876128     0.825740     0.922999  Biso 1.000000     O
    O   1.0     0.410313     0.192608     0.075411  Biso 1.000000     O
    O   1.0     0.410312     0.192610     0.575412  Biso 1.000000     O
    O   1.0     0.410309     0.692607     0.075412  Biso 1.000000     O
    O   1.0     0.410309     0.692610     0.575413  Biso 1.000000     O
    O   1.0     0.910316     0.192611     0.075412  Biso 1.000000     O
    O   1.0     0.910315     0.192613     0.575413  Biso 1.000000     O
    O   1.0     0.910313     0.692610     0.075412  Biso 1.000000     O
    O   1.0     0.910312     0.692612     0.575413  Biso 1.000000     O
    O   1.0     0.452893     0.105599     0.100063  Biso 1.000000     O
    O   1.0     0.452892     0.105600     0.600064  Biso 1.000000     O
    O   1.0     0.452888     0.605597     0.100063  Biso 1.000000     O
    O   1.0     0.452886     0.605599     0.600064  Biso 1.000000     O
    O   1.0     0.952890     0.105597     0.100064  Biso 1.000000     O
    O   1.0     0.952888     0.105599     0.600065  Biso 1.000000     O
    O   1.0     0.952888     0.605597     0.100063  Biso 1.000000     O
    O   1.0     0.952887     0.605599     0.600064  Biso 1.000000     O
    O   1.0     0.295872     0.204599     0.482519  Biso 1.000000     O
    O   1.0     0.295870     0.204602     0.982521  Biso 1.000000     O
    O   1.0     0.295871     0.704600     0.482520  Biso 1.000000     O
    O   1.0     0.295868     0.704602     0.982521  Biso 1.000000     O
    O   1.0     0.795880     0.204604     0.482522  Biso 1.000000     O
    O   1.0     0.795878     0.204606     0.982524  Biso 1.000000     O
    O   1.0     0.795875     0.704603     0.482521  Biso 1.000000     O
    O   1.0     0.795873     0.704605     0.982523  Biso 1.000000     O
    O   1.0     0.382485     0.164158     0.427347  Biso 1.000000     O
    O   1.0     0.382484     0.164161     0.927349  Biso 1.000000     O
    O   1.0     0.382485     0.664158     0.427350  Biso 1.000000     O
    O   1.0     0.382483     0.664160     0.927351  Biso 1.000000     O
    O   1.0     0.882495     0.164160     0.427354  Biso 1.000000     O
    O   1.0     0.882493     0.164163     0.927356  Biso 1.000000     O
    O   1.0     0.882490     0.664159     0.427352  Biso 1.000000     O
    O   1.0     0.882488     0.664162     0.927354  Biso 1.000000     O
    O   1.0     0.449536     0.325634     0.172891  Biso 1.000000     O
    O   1.0     0.449535     0.325637     0.672892  Biso 1.000000     O
    O   1.0     0.449533     0.825633     0.172891  Biso 1.000000     O
    O   1.0     0.449532     0.825635     0.672892  Biso 1.000000     O
    O   1.0     0.949538     0.325634     0.172891  Biso 1.000000     O
    O   1.0     0.949537     0.325637     0.672892  Biso 1.000000     O
    O   1.0     0.949535     0.825634     0.172890  Biso 1.000000     O
    O   1.0     0.949535     0.825636     0.672892  Biso 1.000000     O
    O   1.0     0.217439     0.307132     0.174592  Biso 1.000000     O
    O   1.0     0.217438     0.307132     0.674593  Biso 1.000000     O
    O   1.0     0.217436     0.807131     0.174592  Biso 1.000000     O
    O   1.0     0.217435     0.807131     0.674593  Biso 1.000000     O
    O   1.0     0.717444     0.307133     0.174593  Biso 1.000000     O
    O   1.0     0.717442     0.307134     0.674594  Biso 1.000000     O
    O   1.0     0.717441     0.807133     0.174593  Biso 1.000000     O
    O   1.0     0.717439     0.807134     0.674594  Biso 1.000000     O
    O   1.0     0.346787     0.394141     0.149857  Biso 1.000000     O
    O   1.0     0.346785     0.394141     0.649858  Biso 1.000000     O
    O   1.0     0.346783     0.894141     0.149857  Biso 1.000000     O
    O   1.0     0.346781     0.894142     0.649857  Biso 1.000000     O
    O   1.0     0.846792     0.394141     0.149857  Biso 1.000000     O
    O   1.0     0.846790     0.394142     0.649858  Biso 1.000000     O
    O   1.0     0.846790     0.894140     0.149858  Biso 1.000000     O
    O   1.0     0.846788     0.894141     0.649858  Biso 1.000000     O
    O   1.0     0.091059     0.295524     0.267463  Biso 1.000000     O
    O   1.0     0.091058     0.295525     0.767464  Biso 1.000000     O
    O   1.0     0.091057     0.795522     0.267462  Biso 1.000000     O
    O   1.0     0.091056     0.795523     0.767464  Biso 1.000000     O
    O   1.0     0.591061     0.295526     0.267464  Biso 1.000000     O
    O   1.0     0.591060     0.295527     0.767466  Biso 1.000000     O
    O   1.0     0.591058     0.795527     0.267465  Biso 1.000000     O
    O   1.0     0.591057     0.795527     0.767466  Biso 1.000000     O
    O   1.0     0.217981     0.335796     0.322747  Biso 1.000000     O
    O   1.0     0.217980     0.335797     0.822748  Biso 1.000000     O
    O   1.0     0.217980     0.835795     0.322745  Biso 1.000000     O
    O   1.0     0.217979     0.835796     0.822746  Biso 1.000000     O
    O   1.0     0.717980     0.335798     0.322750  Biso 1.000000     O
    O   1.0     0.717979     0.335799     0.822751  Biso 1.000000     O
    O   1.0     0.717976     0.835797     0.322752  Biso 1.000000     O
    O   1.0     0.717975     0.835799     0.822752  Biso 1.000000     O
    O   1.0     0.123858     0.174252     0.076998  Biso 1.000000     O
    O   1.0     0.123856     0.174253     0.576998  Biso 1.000000     O
    O   1.0     0.123855     0.674252     0.076998  Biso 1.000000     O
    O   1.0     0.123853     0.674253     0.576999  Biso 1.000000     O
    O   1.0     0.623861     0.174253     0.076998  Biso 1.000000     O
    O   1.0     0.623859     0.174254     0.576998  Biso 1.000000     O
    O   1.0     0.623858     0.674252     0.076998  Biso 1.000000     O
    O   1.0     0.623856     0.674253     0.576999  Biso 1.000000     O
   Sr   1.0     0.450303     0.245186     0.347287  Biso 1.000000    Sr
   Sr   1.0     0.450301     0.245188     0.847288  Biso 1.000000    Sr
   Sr   1.0     0.450300     0.745185     0.347287  Biso 1.000000    Sr
   Sr   1.0     0.450298     0.745186     0.847288  Biso 1.000000    Sr
   Sr   1.0     0.950306     0.245186     0.347287  Biso 1.000000    Sr
   Sr   1.0     0.950304     0.245188     0.847288  Biso 1.000000    Sr
   Sr   1.0     0.950303     0.745185     0.347287  Biso 1.000000    Sr
   Sr   1.0     0.950301     0.745187     0.847288  Biso 1.000000    Sr
   Sr   1.0     0.205215     0.254943     0.402794  Biso 1.000000    Sr
   Sr   1.0     0.205213     0.254944     0.902795  Biso 1.000000    Sr
   Sr   1.0     0.205213     0.754943     0.402794  Biso 1.000000    Sr
   Sr   1.0     0.205210     0.754943     0.902795  Biso 1.000000    Sr
   Sr   1.0     0.705218     0.254944     0.402795  Biso 1.000000    Sr
   Sr   1.0     0.705216     0.254945     0.902796  Biso 1.000000    Sr
   Sr   1.0     0.705216     0.754945     0.402795  Biso 1.000000    Sr
   Sr   1.0     0.705214     0.754945     0.902796  Biso 1.000000    Sr
   Sr   1.0     0.049687     0.254808     0.152712  Biso 1.000000    Sr
   Sr   1.0     0.049685     0.254809     0.652713  Biso 1.000000    Sr
   Sr   1.0     0.049684     0.754807     0.152712  Biso 1.000000    Sr
   Sr   1.0     0.049683     0.754808     0.652713  Biso 1.000000    Sr
   Sr   1.0     0.549689     0.254808     0.152712  Biso 1.000000    Sr
   Sr   1.0     0.549687     0.254809     0.652713  Biso 1.000000    Sr
   Sr   1.0     0.549686     0.754806     0.152711  Biso 1.000000    Sr
   Sr   1.0     0.549684     0.754808     0.652713  Biso 1.000000    Sr
   Sr   1.0     0.294772     0.245045     0.097203  Biso 1.000000    Sr
   Sr   1.0     0.294769     0.245046     0.597204  Biso 1.000000    Sr
   Sr   1.0     0.294769     0.745045     0.097203  Biso 1.000000    Sr
   Sr   1.0     0.294767     0.745045     0.597204  Biso 1.000000    Sr
   Sr   1.0     0.794774     0.245046     0.097202  Biso 1.000000    Sr
   Sr   1.0     0.794772     0.245046     0.597203  Biso 1.000000    Sr
   Sr   1.0     0.794772     0.745046     0.097202  Biso 1.000000    Sr
   Sr   1.0     0.794769     0.745046     0.597203  Biso 1.000000    Sr
