#======================================================================

# CRYSTAL DATA

#----------------------------------------------------------------------

data_VESTA_phase_1


_pd_phase_name                         MOF
_cell_length_a                         23.05100
_cell_length_b                         12.50900
_cell_length_c                         15.07400
_cell_angle_alpha                      94.58200
_cell_angle_beta                       106.73000
_cell_angle_gamma                      118.67300
_symmetry_space_group_name_H-M         "P 1"
_symmetry_Int_Tables_number            1

loop_
_symmetry_equiv_pos_as_xyz
   "x, y, z"

loop_
   _atom_site_label
   _atom_site_occupancy
   _atom_site_fract_x
   _atom_site_fract_y
   _atom_site_fract_z
   _atom_site_adp_type
   _atom_site_B_iso_or_equiv
   _atom_site_type_symbol
    H   1.0     0.341733     0.633926     0.148971  Biso 1.000000     H
    H   1.0     0.841725     0.633918     0.148963  Biso 1.000000     H
    H   1.0     0.250606     0.283215     0.386007  Biso 1.000000     H
    H   1.0     0.750604     0.283225     0.386014  Biso 1.000000     H
    H   1.0     0.366980     0.373040     0.467644  Biso 1.000000     H
    H   1.0     0.866972     0.373035     0.467643  Biso 1.000000     H
    H   1.0     0.144590     0.420399     0.207455  Biso 1.000000     H
    H   1.0     0.644586     0.420406     0.207461  Biso 1.000000     H
    H   1.0     0.086439     0.255642     0.580726  Biso 1.000000     H
    H   1.0     0.586433     0.255641     0.580726  Biso 1.000000     H
    H   1.0     0.477893     0.327001     0.345182  Biso 1.000000     H
    H   1.0     0.977888     0.327004     0.345183  Biso 1.000000     H
    H   1.0     0.412375     0.769743     0.079895  Biso 1.000000     H
    H   1.0     0.912367     0.769742     0.079892  Biso 1.000000     H
    H   1.0     0.348290     0.495740     0.206043  Biso 1.000000     H
    H   1.0     0.848283     0.495739     0.206041  Biso 1.000000     H
    H   1.0     0.011197     0.265892     0.670539  Biso 1.000000     H
    H   1.0     0.511191     0.265892     0.670540  Biso 1.000000     H
    H   1.0     0.191975     0.662245     0.997021  Biso 1.000000     H
    H   1.0     0.691966     0.662243     0.997021  Biso 1.000000     H
    H   1.0     0.419925     0.318019     0.594368  Biso 1.000000     H
    H   1.0     0.919919     0.318018     0.594368  Biso 1.000000     H
    H   1.0     0.338775     0.938688     0.890611  Biso 1.000000     H
    H   1.0     0.838765     0.938690     0.890612  Biso 1.000000     H
    H   1.0     0.214928     0.811907     0.892685  Biso 1.000000     H
    H   1.0     0.714918     0.811907     0.892687  Biso 1.000000     H
    H   1.0     0.158240     0.366056     0.851013  Biso 1.000000     H
    H   1.0     0.658238     0.366064     0.851020  Biso 1.000000     H
    H   1.0     0.249373     0.716778     0.613985  Biso 1.000000     H
    H   1.0     0.749364     0.716769     0.613978  Biso 1.000000     H
    H   1.0     0.132993     0.626942     0.532342  Biso 1.000000     H
    H   1.0     0.632989     0.626946     0.532343  Biso 1.000000     H
    H   1.0     0.355387     0.579593     0.792538  Biso 1.000000     H
    H   1.0     0.855380     0.579586     0.792532  Biso 1.000000     H
    H   1.0     0.413536     0.744347     0.419266  Biso 1.000000     H
    H   1.0     0.913531     0.744348     0.419266  Biso 1.000000     H
    H   1.0     0.022084     0.672989     0.654808  Biso 1.000000     H
    H   1.0     0.522078     0.672986     0.654808  Biso 1.000000     H
    H   1.0     0.087598     0.230242     0.920089  Biso 1.000000     H
    H   1.0     0.587595     0.230244     0.920093  Biso 1.000000     H
    H   1.0     0.151686     0.504248     0.793943  Biso 1.000000     H
    H   1.0     0.651681     0.504248     0.793945  Biso 1.000000     H
    H   1.0     0.488777     0.734096     0.329451  Biso 1.000000     H
    H   1.0     0.988771     0.734095     0.329450  Biso 1.000000     H
    H   1.0     0.307999     0.337742     0.002969  Biso 1.000000     H
    H   1.0     0.807996     0.337744     0.002969  Biso 1.000000     H
    H   1.0     0.080049     0.681969     0.405620  Biso 1.000000     H
    H   1.0     0.580043     0.681969     0.405620  Biso 1.000000     H
    H   1.0     0.161197     0.061300     0.109377  Biso 1.000000     H
    H   1.0     0.661196     0.061297     0.109376  Biso 1.000000     H
    H   1.0     0.285045     0.188080     0.107305  Biso 1.000000     H
    H   1.0     0.785043     0.188079     0.107303  Biso 1.000000     H
    C   1.0     0.252316     0.339903     0.334380  Biso 1.000000     C
    C   1.0     0.752313     0.339908     0.334384  Biso 1.000000     C
    C   1.0     0.239479     0.611646     0.443013  Biso 1.000000     C
    C   1.0     0.739473     0.611646     0.443012  Biso 1.000000     C
    C   1.0     0.309070     0.393811     0.302988  Biso 1.000000     C
    C   1.0     0.809068     0.393822     0.302991  Biso 1.000000     C
    C   1.0     0.005707     0.225886     0.152488  Biso 1.000000     C
    C   1.0     0.505703     0.225884     0.152488  Biso 1.000000     C
    C   1.0     0.371196     0.376081     0.332454  Biso 1.000000     C
    C   1.0     0.871200     0.376106     0.332462  Biso 1.000000     C
    C   1.0     0.300364     0.704016     0.046944  Biso 1.000000     C
    C   1.0     0.800355     0.704014     0.046941  Biso 1.000000     C
    C   1.0     0.059666     0.019461     0.244193  Biso 1.000000     C
    C   1.0     0.559663     0.019461     0.244194  Biso 1.000000     C
    C   1.0     0.191728     0.413913     0.233660  Biso 1.000000     C
    C   1.0     0.691723     0.413916     0.233663  Biso 1.000000     C
    C   1.0     0.044506     0.274776     0.549948  Biso 1.000000     C
    C   1.0     0.544500     0.274773     0.549948  Biso 1.000000     C
    C   1.0     0.234154     0.537184     0.121572  Biso 1.000000     C
    C   1.0     0.734148     0.537198     0.121582  Biso 1.000000     C
    C   1.0     0.442053     0.328766     0.463972  Biso 1.000000     C
    C   1.0     0.942047     0.328767     0.463972  Biso 1.000000     C
    C   1.0     0.484355     0.316616     0.417680  Biso 1.000000     C
    C   1.0     0.984349     0.316617     0.417681  Biso 1.000000     C
    C   1.0     0.245923     0.471037     0.197443  Biso 1.000000     C
    C   1.0     0.745919     0.471047     0.197449  Biso 1.000000     C
    C   1.0     0.367098     0.776752     0.039997  Biso 1.000000     C
    C   1.0     0.867089     0.776750     0.039994  Biso 1.000000     C
    C   1.0     0.305055     0.459668     0.232913  Biso 1.000000     C
    C   1.0     0.805046     0.459661     0.232906  Biso 1.000000     C
    C   1.0     0.003663     0.282856     0.599521  Biso 1.000000     C
    C   1.0     0.503657     0.282855     0.599521  Biso 1.000000     C
    C   1.0     0.244316     0.717064     0.993374  Biso 1.000000     C
    C   1.0     0.744308     0.717063     0.993373  Biso 1.000000     C
    C   1.0     0.452363     0.310793     0.556784  Biso 1.000000     C
    C   1.0     0.952358     0.310793     0.556784  Biso 1.000000     C
    C   1.0     0.325672     0.870841     0.933668  Biso 1.000000     C
    C   1.0     0.825663     0.870843     0.933669  Biso 1.000000     C
    C   1.0     0.257803     0.801352     0.935914  Biso 1.000000     C
    C   1.0     0.757794     0.801352     0.935915  Biso 1.000000     C
    C   1.0     0.247662     0.660089     0.665610  Biso 1.000000     C
    C   1.0     0.747654     0.660083     0.665607  Biso 1.000000     C
    C   1.0     0.260496     0.388342     0.556977  Biso 1.000000     C
    C   1.0     0.760491     0.388341     0.556977  Biso 1.000000     C
    C   1.0     0.190909     0.606184     0.697003  Biso 1.000000     C
    C   1.0     0.690900     0.606173     0.696999  Biso 1.000000     C
    C   1.0     0.494268     0.774102     0.847499  Biso 1.000000     C
    C   1.0     0.994261     0.774104     0.847498  Biso 1.000000     C
    C   1.0     0.128787     0.623925     0.667540  Biso 1.000000     C
    C   1.0     0.628772     0.623901     0.667532  Biso 1.000000     C
    C   1.0     0.199610     0.295970     0.953044  Biso 1.000000     C
    C   1.0     0.699607     0.295972     0.953047  Biso 1.000000     C
    C   1.0     0.440310     0.980529     0.755793  Biso 1.000000     C
    C   1.0     0.940301     0.980528     0.755792  Biso 1.000000     C
    C   1.0     0.308248     0.586076     0.766331  Biso 1.000000     C
    C   1.0     0.808242     0.586073     0.766328  Biso 1.000000     C
    C   1.0     0.455469     0.725214     0.450044  Biso 1.000000     C
    C   1.0     0.955464     0.725216     0.450044  Biso 1.000000     C
    C   1.0     0.265821     0.462812     0.878423  Biso 1.000000     C
    C   1.0     0.765816     0.462798     0.878413  Biso 1.000000     C
    C   1.0     0.057922     0.671223     0.536017  Biso 1.000000     C
    C   1.0     0.557917     0.671221     0.536017  Biso 1.000000     C
    C   1.0     0.015621     0.683373     0.582310  Biso 1.000000     C
    C   1.0     0.515616     0.683372     0.582310  Biso 1.000000     C
    C   1.0     0.254053     0.528956     0.802549  Biso 1.000000     C
    C   1.0     0.754046     0.528946     0.802543  Biso 1.000000     C
    C   1.0     0.132875     0.223235     0.959990  Biso 1.000000     C
    C   1.0     0.632873     0.223236     0.959993  Biso 1.000000     C
    C   1.0     0.194919     0.540318     0.767072  Biso 1.000000     C
    C   1.0     0.694917     0.540323     0.767078  Biso 1.000000     C
    C   1.0     0.496311     0.717133     0.400470  Biso 1.000000     C
    C   1.0     0.996306     0.717134     0.400470  Biso 1.000000     C
    C   1.0     0.255657     0.282923     0.006616  Biso 1.000000     C
    C   1.0     0.755655     0.282924     0.006616  Biso 1.000000     C
    C   1.0     0.047611     0.689196     0.443205  Biso 1.000000     C
    C   1.0     0.547605     0.689195     0.443205  Biso 1.000000     C
    C   1.0     0.174301     0.129146     0.066320  Biso 1.000000     C
    C   1.0     0.674299     0.129144     0.066319  Biso 1.000000     C
    C   1.0     0.242170     0.198635     0.064075  Biso 1.000000     C
    C   1.0     0.742168     0.198634     0.064074  Biso 1.000000     C
    N   1.0     0.034403     0.291068     0.460853  Biso 1.000000     N
    N   1.0     0.534396     0.291066     0.460853  Biso 1.000000     N
    N   1.0     0.195065     0.350558     0.300684  Biso 1.000000     N
    N   1.0     0.695051     0.350528     0.300665  Biso 1.000000     N
    N   1.0     0.301669     0.652055     0.472255  Biso 1.000000     N
    N   1.0     0.801663     0.652055     0.472253  Biso 1.000000     N
    N   1.0     0.294845     0.624328     0.108764  Biso 1.000000     N
    N   1.0     0.794837     0.624324     0.108760  Biso 1.000000     N
    N   1.0     0.389523     0.356209     0.422225  Biso 1.000000     N
    N   1.0     0.889517     0.356209     0.422225  Biso 1.000000     N
    N   1.0     0.379444     0.858414     0.985531  Biso 1.000000     N
    N   1.0     0.879435     0.858414     0.985530  Biso 1.000000     N
    N   1.0     0.022859     0.250202     0.237177  Biso 1.000000     N
    N   1.0     0.522854     0.250200     0.237177  Biso 1.000000     N
    N   1.0     0.039960     0.989829     0.159495  Biso 1.000000     N
    N   1.0     0.539957     0.989828     0.159497  Biso 1.000000     N
    N   1.0     0.465573     0.708922     0.539138  Biso 1.000000     N
    N   1.0     0.965568     0.708924     0.539139  Biso 1.000000     N
    N   1.0     0.304908     0.649415     0.699296  Biso 1.000000     N
    N   1.0     0.804909     0.649442     0.699313  Biso 1.000000     N
    N   1.0     0.198306     0.347933     0.527736  Biso 1.000000     N
    N   1.0     0.698300     0.347932     0.527738  Biso 1.000000     N
    N   1.0     0.205129     0.375658     0.891224  Biso 1.000000     N
    N   1.0     0.705126     0.375662     0.891228  Biso 1.000000     N
    N   1.0     0.110452     0.643779     0.577763  Biso 1.000000     N
    N   1.0     0.610447     0.643778     0.577763  Biso 1.000000     N
    N   1.0     0.120529     0.141573     0.014456  Biso 1.000000     N
    N   1.0     0.620527     0.141572     0.014457  Biso 1.000000     N
    N   1.0     0.477119     0.749788     0.762811  Biso 1.000000     N
    N   1.0     0.977113     0.749790     0.762810  Biso 1.000000     N
    N   1.0     0.460017     0.010161     0.840491  Biso 1.000000     N
    N   1.0     0.960008     0.010162     0.840489  Biso 1.000000     N
    O   1.0     0.174182     0.514830     0.075714  Biso 1.000000     O
    O   1.0     0.674172     0.514811     0.075701  Biso 1.000000     O
    O   1.0     0.401689     0.378402     0.276757  Biso 1.000000     O
    O   1.0     0.901680     0.378391     0.276754  Biso 1.000000     O
    O   1.0     0.325792     0.485148     0.924269  Biso 1.000000     O
    O   1.0     0.825790     0.485166     0.924281  Biso 1.000000     O
    O   1.0     0.098290     0.621592     0.723233  Biso 1.000000     O
    O   1.0     0.598288     0.621602     0.723236  Biso 1.000000     O
    S   1.0     0.153487     0.554040     0.399485  Biso 1.000000     S
    S   1.0     0.653481     0.554039     0.399485  Biso 1.000000     S
    S   1.0     0.087576     0.056866     0.361883  Biso 1.000000     S
    S   1.0     0.587573     0.056867     0.361884  Biso 1.000000     S
    S   1.0     0.480946     0.196031     0.035797  Biso 1.000000     S
    S   1.0     0.980937     0.196032     0.035796  Biso 1.000000     S
    S   1.0     0.346488     0.445947     0.600503  Biso 1.000000     S
    S   1.0     0.846483     0.445947     0.600502  Biso 1.000000     S
    S   1.0     0.412398     0.943122     0.638103  Biso 1.000000     S
    S   1.0     0.912390     0.943121     0.638102  Biso 1.000000     S
    S   1.0     0.019027     0.803956     0.964190  Biso 1.000000     S
    S   1.0     0.519024     0.803954     0.964191  Biso 1.000000     S
   Cd   1.0     0.108279     0.289158     0.379194  Biso 1.000000    Cd
   Cd   1.0     0.608273     0.289156     0.379195  Biso 1.000000    Cd
   Cd   1.0     0.391697     0.710831     0.620795  Biso 1.000000    Cd
   Cd   1.0     0.891691     0.710832     0.620795  Biso 1.000000    Cd
   Cd   1.0    -0.000008    -0.000003     0.000008  Biso 1.000000    Cd
   Cd   1.0     0.499983    -0.000009     0.999978  Biso 1.000000    Cd
