#======================================================================

# CRYSTAL DATA

#----------------------------------------------------------------------

data_VESTA_phase_1


_pd_phase_name                         MOF
_cell_length_a                         23.47200
_cell_length_b                         14.35000
_cell_length_c                         14.22900
_cell_angle_alpha                      103.26700
_cell_angle_beta                       114.32500
_cell_angle_gamma                      89.87800
_symmetry_space_group_name_H-M         "P 1"
_symmetry_Int_Tables_number            1

loop_
_symmetry_equiv_pos_as_xyz
   "x, y, z"

loop_
   _atom_site_label
   _atom_site_occupancy
   _atom_site_fract_x
   _atom_site_fract_y
   _atom_site_fract_z
   _atom_site_adp_type
   _atom_site_B_iso_or_equiv
   _atom_site_type_symbol
    H   1.0     0.400779     0.790511     0.397104  Biso 1.000000     H
    H   1.0     0.900778     0.790512     0.397101  Biso 1.000000     H
    H   1.0     0.487914     0.856751     0.363666  Biso 1.000000     H
    H   1.0     0.987906     0.856763     0.363653  Biso 1.000000     H
    H   1.0     0.041439     0.385101     0.340767  Biso 1.000000     H
    H   1.0     0.541421     0.385088     0.340778  Biso 1.000000     H
    H   1.0     0.038732     0.383068     0.164782  Biso 1.000000     H
    H   1.0     0.538715     0.383056     0.164792  Biso 1.000000     H
    H   1.0     0.335717     0.359095     0.039543  Biso 1.000000     H
    H   1.0     0.835713     0.359084     0.039528  Biso 1.000000     H
    H   1.0     0.347394     0.356972     0.221313  Biso 1.000000     H
    H   1.0     0.847391     0.356963     0.221300  Biso 1.000000     H
    H   1.0     0.067491     0.366493     0.878308  Biso 1.000000     H
    H   1.0     0.567476     0.366490     0.878323  Biso 1.000000     H
    H   1.0     0.054974     0.368435     0.696138  Biso 1.000000     H
    H   1.0     0.554959     0.368428     0.696153  Biso 1.000000     H
    H   1.0     0.364456     0.399188     0.598336  Biso 1.000000     H
    H   1.0     0.864448     0.399183     0.598321  Biso 1.000000     H
    H   1.0     0.367414     0.392002     0.769706  Biso 1.000000     H
    H   1.0     0.867408     0.391994     0.769690  Biso 1.000000     H
    H   1.0     0.380124     0.368220     0.919378  Biso 1.000000     H
    H   1.0     0.880119     0.368217     0.919365  Biso 1.000000     H
    H   1.0     0.024596     0.379580     0.000000  Biso 1.000000     H
    H   1.0     0.524580     0.379579     0.000000  Biso 1.000000     H
    H   1.0     0.201609     0.709170     0.602758  Biso 1.000000     H
    H   1.0     0.701593     0.709159     0.602757  Biso 1.000000     H
    H   1.0     0.305646     0.643011     0.636457  Biso 1.000000     H
    H   1.0     0.805629     0.642999     0.636451  Biso 1.000000     H
    H   1.0     0.370725     0.114814     0.659111  Biso 1.000000     H
    H   1.0     0.870713     0.114807     0.659110  Biso 1.000000     H
    H   1.0     0.456162     0.117139     0.834950  Biso 1.000000     H
    H   1.0     0.956150     0.117140     0.834952  Biso 1.000000     H
    H   1.0     0.316026     0.140712     0.960995  Biso 1.000000     H
    H   1.0     0.816011     0.140705     0.960992  Biso 1.000000     H
    H   1.0     0.236612     0.142427     0.779273  Biso 1.000000     H
    H   1.0     0.736597     0.142410     0.779266  Biso 1.000000     H
    H   1.0     0.128308     0.133204     0.121555  Biso 1.000000     H
    H   1.0     0.628300     0.133207     0.121555  Biso 1.000000     H
    H   1.0     0.206714     0.131282     0.303798  Biso 1.000000     H
    H   1.0     0.706706     0.131282     0.303798  Biso 1.000000     H
    H   1.0     0.065073     0.101079     0.401582  Biso 1.000000     H
    H   1.0     0.565063     0.101057     0.401574  Biso 1.000000     H
    H   1.0     0.482478     0.108309     0.230153  Biso 1.000000     H
    H   1.0     0.982466     0.108323     0.230160  Biso 1.000000     H
    H   1.0     0.420543     0.132025     0.080799  Biso 1.000000     H
    H   1.0     0.920530     0.132026     0.080800  Biso 1.000000     H
    H   1.0     0.021412     0.120248    -0.006607  Biso 1.000000     H
    H   1.0     0.521404     0.120248    -0.006609  Biso 1.000000     H
    H   1.0     0.099236     0.209441     0.602954  Biso 1.000000     H
    H   1.0     0.599227     0.209428     0.602948  Biso 1.000000     H
    H   1.0     0.012108     0.143210     0.636414  Biso 1.000000     H
    H   1.0     0.512100     0.143201     0.636413  Biso 1.000000     H
    H   1.0     0.458580     0.614858     0.659283  Biso 1.000000     H
    H   1.0     0.958567     0.614856     0.659274  Biso 1.000000     H
    H   1.0     0.461286     0.616891     0.835269  Biso 1.000000     H
    H   1.0     0.961273     0.616889     0.835261  Biso 1.000000     H
    H   1.0     0.164293     0.640849     0.960508  Biso 1.000000     H
    H   1.0     0.664285     0.640845     0.960515  Biso 1.000000     H
    H   1.0     0.152614     0.642974     0.778738  Biso 1.000000     H
    H   1.0     0.652606     0.642963     0.778743  Biso 1.000000     H
    H   1.0     0.432524     0.633453     0.121733  Biso 1.000000     H
    H   1.0     0.932512     0.633454     0.121727  Biso 1.000000     H
    H   1.0     0.445038     0.631514     0.303902  Biso 1.000000     H
    H   1.0     0.945027     0.631519     0.303897  Biso 1.000000     H
    H   1.0     0.135554     0.600781     0.401725  Biso 1.000000     H
    H   1.0     0.635543     0.600760     0.401726  Biso 1.000000     H
    H   1.0     0.132596     0.607960     0.230353  Biso 1.000000     H
    H   1.0     0.632586     0.607946     0.230357  Biso 1.000000     H
    H   1.0     0.119886     0.631727     0.080675  Biso 1.000000     H
    H   1.0     0.619878     0.631721     0.080682  Biso 1.000000     H
    H   1.0     0.475421     0.620367    -0.006329  Biso 1.000000     H
    H   1.0     0.975409     0.620368    -0.006336  Biso 1.000000     H
    H   1.0     0.298409     0.290781     0.397301  Biso 1.000000     H
    H   1.0     0.798405     0.290777     0.397290  Biso 1.000000     H
    H   1.0     0.194372     0.356934     0.363613  Biso 1.000000     H
    H   1.0     0.694368     0.356927     0.363616  Biso 1.000000     H
    H   1.0     0.129287     0.885139     0.340939  Biso 1.000000     H
    H   1.0     0.629279     0.885126     0.340932  Biso 1.000000     H
    H   1.0     0.043849     0.882813     0.165099  Biso 1.000000     H
    H   1.0     0.543841     0.882802     0.165094  Biso 1.000000     H
    H   1.0     0.183986     0.859228     0.039053  Biso 1.000000     H
    H   1.0     0.683977     0.859231     0.039047  Biso 1.000000     H
    H   1.0     0.263399     0.857515     0.220777  Biso 1.000000     H
    H   1.0     0.763391     0.857517     0.220770  Biso 1.000000     H
    H   1.0     0.371702     0.866741     0.878497  Biso 1.000000     H
    H   1.0     0.871689     0.866730     0.878490  Biso 1.000000     H
    H   1.0     0.293295     0.868667     0.696255  Biso 1.000000     H
    H   1.0     0.793283     0.868652     0.696246  Biso 1.000000     H
    H   1.0     0.434935     0.898873     0.598468  Biso 1.000000     H
    H   1.0     0.934927     0.898876     0.598471  Biso 1.000000     H
    H   1.0     0.017533     0.891632     0.769895  Biso 1.000000     H
    H   1.0     0.517522     0.891625     0.769889  Biso 1.000000     H
    H   1.0     0.079468     0.867917     0.919249  Biso 1.000000     H
    H   1.0     0.579458     0.867914     0.919243  Biso 1.000000     H
    H   1.0     0.478600     0.879697     0.000000  Biso 1.000000     H
    H   1.0     0.978586     0.879697     0.000000  Biso 1.000000     H
    C   1.0     0.412417     0.048642     0.376853  Biso 1.000000     C
    C   1.0     0.912407     0.048648     0.376860  Biso 1.000000     C
    C   1.0     0.365739     0.013637     0.402150  Biso 1.000000     C
    C   1.0     0.865724     0.013631     0.402137  Biso 1.000000     C
    C   1.0     0.404453     0.864897     0.392300  Biso 1.000000     C
    C   1.0     0.904446     0.864898     0.392293  Biso 1.000000     C
    C   1.0     0.451816     0.901789     0.371622  Biso 1.000000     C
    C   1.0     0.951809     0.901798     0.371620  Biso 1.000000     C
    C   1.0     0.418215     0.150239     0.363944  Biso 1.000000     C
    C   1.0     0.918196     0.150245     0.363944  Biso 1.000000     C
    C   1.0     0.317871     0.076370     0.422316  Biso 1.000000     C
    C   1.0     0.817858     0.076360     0.422320  Biso 1.000000     C
    C   1.0    -0.003200     0.378076     0.271367  Biso 1.000000     C
    C   1.0     0.496783     0.378068     0.271377  Biso 1.000000     C
    C   1.0    -0.005348     0.377352     0.172370  Biso 1.000000     C
    C   1.0     0.494635     0.377346     0.172381  Biso 1.000000     C
    C   1.0     0.436210     0.371459     0.084928  Biso 1.000000     C
    C   1.0     0.936207     0.371460     0.084916  Biso 1.000000     C
    C   1.0     0.382362     0.364358     0.104183  Biso 1.000000     C
    C   1.0     0.882358     0.364352     0.104169  Biso 1.000000     C
    C   1.0     0.388595     0.363966     0.205463  Biso 1.000000     C
    C   1.0     0.888592     0.363962     0.205450  Biso 1.000000     C
    C   1.0     0.468655     0.378724     0.841735  Biso 1.000000     C
    C   1.0     0.968649     0.378724     0.841721  Biso 1.000000     C
    C   1.0     0.021283     0.372569     0.817768  Biso 1.000000     C
    C   1.0     0.521268     0.372565     0.817782  Biso 1.000000     C
    C   1.0     0.014939     0.374556     0.716773  Biso 1.000000     C
    C   1.0     0.514925     0.374552     0.716787  Biso 1.000000     C
    C   1.0     0.408764     0.390365     0.661245  Biso 1.000000     C
    C   1.0     0.908757     0.390365     0.661231  Biso 1.000000     C
    C   1.0     0.410948     0.387398     0.759413  Biso 1.000000     C
    C   1.0     0.910941     0.387395     0.759398  Biso 1.000000     C
    C   1.0     0.428710     0.372514     0.978355  Biso 1.000000     C
    C   1.0     0.928705     0.372518     0.978343  Biso 1.000000     C
    C   1.0     0.476032     0.377160     0.948165  Biso 1.000000     C
    C   1.0     0.976026     0.377153     0.948150  Biso 1.000000     C
    C   1.0     0.224038     0.451141     0.623138  Biso 1.000000     C
    C   1.0     0.724024     0.451130     0.623138  Biso 1.000000     C
    C   1.0     0.164630     0.486116     0.597849  Biso 1.000000     C
    C   1.0     0.664617     0.486105     0.597858  Biso 1.000000     C
    C   1.0     0.207876     0.634803     0.607628  Biso 1.000000     C
    C   1.0     0.707859     0.634792     0.607628  Biso 1.000000     C
    C   1.0     0.265679     0.597949     0.628411  Biso 1.000000     C
    C   1.0     0.765663     0.597938     0.628407  Biso 1.000000     C
    C   1.0     0.236477     0.349521     0.635855  Biso 1.000000     C
    C   1.0     0.736462     0.349511     0.635859  Biso 1.000000     C
    C   1.0     0.106921     0.423409     0.578025  Biso 1.000000     C
    C   1.0     0.606908     0.423399     0.578038  Biso 1.000000     C
    C   1.0     0.360859     0.121835     0.728644  Biso 1.000000     C
    C   1.0     0.860847     0.121829     0.728643  Biso 1.000000     C
    C   1.0     0.408305     0.122728     0.827556  Biso 1.000000     C
    C   1.0     0.908292     0.122726     0.827556  Biso 1.000000     C
    C   1.0     0.393712     0.128584     0.915176  Biso 1.000000     C
    C   1.0     0.893699     0.128580     0.915176  Biso 1.000000     C
    C   1.0     0.330253     0.135505     0.896192  Biso 1.000000     C
    C   1.0     0.830240     0.135498     0.896190  Biso 1.000000     C
    C   1.0     0.285749     0.135681     0.794955  Biso 1.000000     C
    C   1.0     0.785735     0.135669     0.794952  Biso 1.000000     C
    C   1.0     0.047766     0.121310     0.158156  Biso 1.000000     C
    C   1.0     0.547758     0.121307     0.158154  Biso 1.000000     C
    C   1.0     0.112325     0.127306     0.182116  Biso 1.000000     C
    C   1.0     0.612317     0.127305     0.182115  Biso 1.000000     C
    C   1.0     0.156387     0.125295     0.283140  Biso 1.000000     C
    C   1.0     0.656379     0.125291     0.283138  Biso 1.000000     C
    C   1.0     0.077975     0.109804     0.338676  Biso 1.000000     C
    C   1.0     0.577966     0.109788     0.338669  Biso 1.000000     C
    C   1.0     0.031159     0.112827     0.240498  Biso 1.000000     C
    C   1.0     0.531150     0.112816     0.240493  Biso 1.000000     C
    C   1.0     0.439588     0.127613     0.021681  Biso 1.000000     C
    C   1.0     0.939575     0.127614     0.021682  Biso 1.000000     C
    C   1.0     0.001981     0.122841     0.051705  Biso 1.000000     C
    C   1.0     0.501973     0.122840     0.051703  Biso 1.000000     C
    C   1.0     0.087592     0.951309     0.623198  Biso 1.000000     C
    C   1.0     0.587582     0.951298     0.623195  Biso 1.000000     C
    C   1.0     0.134272     0.986314     0.597905  Biso 1.000000     C
    C   1.0     0.634264     0.986300     0.597905  Biso 1.000000     C
    C   1.0     0.095562     0.135057     0.607760  Biso 1.000000     C
    C   1.0     0.595554     0.135043     0.607756  Biso 1.000000     C
    C   1.0     0.048200     0.098166     0.628443  Biso 1.000000     C
    C   1.0     0.548192     0.098158     0.628441  Biso 1.000000     C
    C   1.0     0.081792     0.849713     0.636106  Biso 1.000000     C
    C   1.0     0.581783     0.849703     0.636108  Biso 1.000000     C
    C   1.0     0.182137     0.923576     0.577730  Biso 1.000000     C
    C   1.0     0.682127     0.923560     0.577727  Biso 1.000000     C
    C   1.0     0.503219     0.621878     0.728683  Biso 1.000000     C
    C   1.0     0.000000     0.621875     0.728674  Biso 1.000000     C
    C   1.0     0.505366     0.622601     0.827679  Biso 1.000000     C
    C   1.0     0.000000     0.622599     0.827671  Biso 1.000000     C
    C   1.0     0.063799     0.628485     0.915123  Biso 1.000000     C
    C   1.0     0.563790     0.628484     0.915131  Biso 1.000000     C
    C   1.0     0.117647     0.635586     0.895869  Biso 1.000000     C
    C   1.0     0.617639     0.635584     0.895877  Biso 1.000000     C
    C   1.0     0.111413     0.635980     0.794588  Biso 1.000000     C
    C   1.0     0.611405     0.635974     0.794596  Biso 1.000000     C
    C   1.0     0.031354     0.621228     0.158318  Biso 1.000000     C
    C   1.0     0.531345     0.621218     0.158322  Biso 1.000000     C
    C   1.0     0.478731     0.627376     0.182274  Biso 1.000000     C
    C   1.0     0.978720     0.627384     0.182269  Biso 1.000000     C
    C   1.0     0.485073     0.625390     0.283269  Biso 1.000000     C
    C   1.0     0.985062     0.625398     0.283265  Biso 1.000000     C
    C   1.0     0.091246     0.609596     0.338812  Biso 1.000000     C
    C   1.0     0.591235     0.609579     0.338814  Biso 1.000000     C
    C   1.0     0.089062     0.612560     0.240643  Biso 1.000000     C
    C   1.0     0.589051     0.612545     0.240646  Biso 1.000000     C
    C   1.0     0.071300     0.627426     0.021696  Biso 1.000000     C
    C   1.0     0.571292     0.627426     0.021704  Biso 1.000000     C
    C   1.0     0.023978     0.622794     0.051889  Biso 1.000000     C
    C   1.0     0.523970     0.622788     0.051895  Biso 1.000000     C
    C   1.0     0.275971     0.548809     0.376919  Biso 1.000000     C
    C   1.0     0.775961     0.548807     0.376918  Biso 1.000000     C
    C   1.0     0.335378     0.513835     0.402198  Biso 1.000000     C
    C   1.0     0.835367     0.513832     0.402175  Biso 1.000000     C
    C   1.0     0.292139     0.365147     0.392429  Biso 1.000000     C
    C   1.0     0.792132     0.365141     0.392412  Biso 1.000000     C
    C   1.0     0.234334     0.401998     0.371652  Biso 1.000000     C
    C   1.0     0.734330     0.401995     0.371657  Biso 1.000000     C
    C   1.0     0.263531     0.650430     0.364204  Biso 1.000000     C
    C   1.0     0.763518     0.650426     0.364202  Biso 1.000000     C
    C   1.0     0.393084     0.576545     0.422012  Biso 1.000000     C
    C   1.0     0.893072     0.576544     0.421993  Biso 1.000000     C
    C   1.0     0.139152     0.878114     0.271405  Biso 1.000000     C
    C   1.0     0.639144     0.878103     0.271398  Biso 1.000000     C
    C   1.0     0.091706     0.877221     0.172493  Biso 1.000000     C
    C   1.0     0.591698     0.877212     0.172487  Biso 1.000000     C
    C   1.0     0.106300     0.871361     0.084873  Biso 1.000000     C
    C   1.0     0.606291     0.871360     0.084868  Biso 1.000000     C
    C   1.0     0.169758     0.864438     0.103856  Biso 1.000000     C
    C   1.0     0.669750     0.864437     0.103850  Biso 1.000000     C
    C   1.0     0.214262     0.864262     0.205094  Biso 1.000000     C
    C   1.0     0.714254     0.864258     0.205086  Biso 1.000000     C
    C   1.0     0.452244     0.878635     0.841894  Biso 1.000000     C
    C   1.0     0.952232     0.878634     0.841894  Biso 1.000000     C
    C   1.0     0.387685     0.872641     0.817935  Biso 1.000000     C
    C   1.0     0.887673     0.872633     0.817930  Biso 1.000000     C
    C   1.0     0.343622     0.874654     0.716913  Biso 1.000000     C
    C   1.0     0.843611     0.874644     0.716907  Biso 1.000000     C
    C   1.0     0.422034     0.890148     0.661376  Biso 1.000000     C
    C   1.0     0.922025     0.890147     0.661376  Biso 1.000000     C
    C   1.0     0.468850     0.887122     0.759552  Biso 1.000000     C
    C   1.0     0.968840     0.887124     0.759555  Biso 1.000000     C
    C   1.0     0.060423     0.872330     0.978367  Biso 1.000000     C
    C   1.0     0.560414     0.872326     0.978362  Biso 1.000000     C
    C   1.0     0.498029     0.877104     0.948344  Biso 1.000000     C
    C   1.0     0.998017     0.877103     0.948345  Biso 1.000000     C
    N   1.0     0.455898     0.992331     0.362854  Biso 1.000000     N
    N   1.0     0.955886     0.992339     0.362848  Biso 1.000000     N
    N   1.0     0.361984     0.921581     0.408556  Biso 1.000000     N
    N   1.0     0.861976     0.921578     0.408554  Biso 1.000000     N
    N   1.0     0.444794     0.371951     0.289017  Biso 1.000000     N
    N   1.0     0.944791     0.371946     0.289004  Biso 1.000000     N
    N   1.0     0.459461     0.384041     0.638786  Biso 1.000000     N
    N   1.0     0.959455     0.384047     0.638774  Biso 1.000000     N
    N   1.0     0.274378     0.507407     0.637180  Biso 1.000000     N
    N   1.0     0.774363     0.507397     0.637178  Biso 1.000000     N
    N   1.0     0.157435     0.578131     0.591410  Biso 1.000000     N
    N   1.0     0.657420     0.578120     0.591415  Biso 1.000000     N
    N   1.0     0.300067     0.127738     0.711230  Biso 1.000000     N
    N   1.0     0.800053     0.127725     0.711227  Biso 1.000000     N
    N   1.0     0.139870     0.115897     0.361131  Biso 1.000000     N
    N   1.0     0.639861     0.115881     0.361124  Biso 1.000000     N
    N   1.0     0.044118     0.007626     0.637214  Biso 1.000000     N
    N   1.0     0.544108     0.007617     0.637210  Biso 1.000000     N
    N   1.0     0.138028     0.078370     0.591499  Biso 1.000000     N
    N   1.0     0.638018     0.078353     0.591490  Biso 1.000000     N
    N   1.0     0.055215     0.628004     0.711036  Biso 1.000000     N
    N   1.0     0.555207     0.627992     0.711041  Biso 1.000000     N
    N   1.0     0.040547     0.615910     0.361265  Biso 1.000000     N
    N   1.0     0.540537     0.615908     0.361271  Biso 1.000000     N
    N   1.0     0.225633     0.492540     0.362882  Biso 1.000000     N
    N   1.0     0.725624     0.492534     0.362880  Biso 1.000000     N
    N   1.0     0.342577     0.421821     0.408642  Biso 1.000000     N
    N   1.0     0.842569     0.421820     0.408626  Biso 1.000000     N
    N   1.0     0.199944     0.872211     0.288820  Biso 1.000000     N
    N   1.0     0.699937     0.872208     0.288813  Biso 1.000000     N
    N   1.0     0.360139     0.884054     0.638923  Biso 1.000000     N
    N   1.0     0.860129     0.884052     0.638921  Biso 1.000000     N
    O   1.0     0.445226     0.214081     0.453098  Biso 1.000000     O
    O   1.0     0.945221     0.214085     0.453095  Biso 1.000000     O
    O   1.0     0.400056     0.159942     0.271642  Biso 1.000000     O
    O   1.0     0.900045     0.159944     0.271641  Biso 1.000000     O
    O   1.0     0.306169     0.147515     0.383958  Biso 1.000000     O
    O   1.0     0.806172     0.147528     0.383999  Biso 1.000000     O
    O   1.0     0.292677     0.048932     0.478266  Biso 1.000000     O
    O   1.0     0.792665     0.048913     0.478265  Biso 1.000000     O
    O   1.0     0.218528     0.285701     0.546563  Biso 1.000000     O
    O   1.0     0.718508     0.285688     0.546567  Biso 1.000000     O
    O   1.0     0.264877     0.339770     0.728052  Biso 1.000000     O
    O   1.0     0.764873     0.339765     0.728056  Biso 1.000000     O
    O   1.0     0.114708     0.352600     0.616966  Biso 1.000000     O
    O   1.0     0.614698     0.352596     0.616988  Biso 1.000000     O
    O   1.0     0.053679     0.450611     0.521862  Biso 1.000000     O
    O   1.0     0.553666     0.450594     0.521866  Biso 1.000000     O
    O   1.0     0.054777     0.785872     0.546953  Biso 1.000000     O
    O   1.0     0.554764     0.785861     0.546956  Biso 1.000000     O
    O   1.0     0.099944     0.840013     0.728408  Biso 1.000000     O
    O   1.0     0.599929     0.840008     0.728410  Biso 1.000000     O
    O   1.0     0.193835     0.852424     0.616078  Biso 1.000000     O
    O   1.0     0.693823     0.852411     0.616080  Biso 1.000000     O
    O   1.0     0.207326     0.951011     0.521773  Biso 1.000000     O
    O   1.0     0.707311     0.950983     0.521758  Biso 1.000000     O
    O   1.0     0.281503     0.714250     0.453501  Biso 1.000000     O
    O   1.0     0.781491     0.714244     0.453501  Biso 1.000000     O
    O   1.0     0.235119     0.660188     0.272012  Biso 1.000000     O
    O   1.0     0.735106     0.660187     0.272011  Biso 1.000000     O
    O   1.0     0.385292     0.647333     0.383039  Biso 1.000000     O
    O   1.0     0.885277     0.647343     0.383036  Biso 1.000000     O
    O   1.0     0.446327     0.549351     0.478183  Biso 1.000000     O
    O   1.0     0.946317     0.549363     0.478178  Biso 1.000000     O
   Cd   1.0     0.451445     0.374068     0.462641  Biso 1.000000    Cd
   Cd   1.0     0.951439     0.374073     0.462629  Biso 1.000000    Cd
   Cd   1.0     0.219934     0.125888     0.537459  Biso 1.000000    Cd
   Cd   1.0     0.719922     0.125873     0.537455  Biso 1.000000    Cd
   Cd   1.0     0.048562     0.625886     0.537410  Biso 1.000000    Cd
   Cd   1.0     0.548551     0.625874     0.537412  Biso 1.000000    Cd
   Cd   1.0     0.280077     0.874059     0.462590  Biso 1.000000    Cd
   Cd   1.0     0.780067     0.874047     0.462582  Biso 1.000000    Cd
