#======================================================================

# CRYSTAL DATA

#----------------------------------------------------------------------

data_VESTA_phase_1


_pd_phase_name                         MOF
_cell_length_a                         14.91500
_cell_length_b                         14.98300
_cell_length_c                         13.05000
_cell_angle_alpha                      88.59500
_cell_angle_beta                       89.96800
_cell_angle_gamma                      88.30200
_symmetry_space_group_name_H-M         "P 1"
_symmetry_Int_Tables_number            1

loop_
_symmetry_equiv_pos_as_xyz
   "x, y, z"

loop_
   _atom_site_label
   _atom_site_occupancy
   _atom_site_fract_x
   _atom_site_fract_y
   _atom_site_fract_z
   _atom_site_adp_type
   _atom_site_B_iso_or_equiv
   _atom_site_type_symbol
    C   1.0     0.001533     0.160224     0.096279  Biso 1.000000     C
    C   1.0    -0.001869     0.659794     0.099908  Biso 1.000000     C
    C   1.0     0.498106     0.159669     0.099834  Biso 1.000000     C
    C   1.0     0.501536     0.660088     0.096320  Biso 1.000000     C
    C   1.0     0.003030     0.334356     0.097559  Biso 1.000000     C
    C   1.0    -0.000298     0.834967     0.101293  Biso 1.000000     C
    C   1.0     0.499603     0.334862     0.101257  Biso 1.000000     C
    C   1.0     0.503039     0.834198     0.097646  Biso 1.000000     C
    C   1.0     0.337300     0.499344     0.400911  Biso 1.000000     C
    C   1.0     0.337726     0.994664     0.400957  Biso 1.000000     C
    C   1.0     0.837716     0.494743     0.400975  Biso 1.000000     C
    C   1.0     0.837287     0.999405     0.400860  Biso 1.000000     C
    C   1.0     0.162329     0.496661     0.401258  Biso 1.000000     C
    C   1.0     0.162687     0.994687     0.401370  Biso 1.000000     C
    C   1.0     0.662683     0.494468     0.401343  Biso 1.000000     C
    C   1.0     0.662314     0.996703     0.401282  Biso 1.000000     C
    C   1.0     0.498446     0.339825     0.903683  Biso 1.000000     C
    C   1.0     0.501846     0.840242     0.900159  Biso 1.000000     C
    C   1.0     0.000000     0.340314     0.900035  Biso 1.000000     C
    C   1.0     0.998483     0.839898     0.903695  Biso 1.000000     C
    C   1.0     0.496920     0.165706     0.902326  Biso 1.000000     C
    C   1.0     0.500436     0.665053     0.898694  Biso 1.000000     C
    C   1.0     0.000000     0.165146     0.898681  Biso 1.000000     C
    C   1.0     0.996906     0.665759     0.902431  Biso 1.000000     C
    C   1.0     0.162666     0.000607     0.599099  Biso 1.000000     C
    C   1.0     0.162191     0.505363     0.598997  Biso 1.000000     C
    C   1.0     0.662238     0.005291     0.599025  Biso 1.000000     C
    C   1.0     0.662613     0.500515     0.599066  Biso 1.000000     C
    C   1.0     0.337646     0.003238     0.598691  Biso 1.000000     C
    C   1.0     0.337224     0.505402     0.598647  Biso 1.000000     C
    C   1.0     0.837266     0.005343     0.598613  Biso 1.000000     C
    C   1.0     0.837584     0.503461     0.598695  Biso 1.000000     C
    N   1.0     0.000939     0.102317     0.157979  Biso 1.000000     N
    N   1.0    -0.001696     0.600923     0.160427  Biso 1.000000     N
    N   1.0     0.498261     0.100804     0.160357  Biso 1.000000     N
    N   1.0     0.500953     0.602220     0.158066  Biso 1.000000     N
    N   1.0     0.003277     0.388965     0.160046  Biso 1.000000     N
    N   1.0     0.000691     0.890415     0.162768  Biso 1.000000     N
    N   1.0     0.500542     0.390346     0.162695  Biso 1.000000     N
    N   1.0     0.503313     0.888818     0.160122  Biso 1.000000     N
    N   1.0     0.393847     0.498113     0.338797  Biso 1.000000     N
    N   1.0     0.394072     0.992369     0.338647  Biso 1.000000     N
    N   1.0     0.894082     0.492468     0.338687  Biso 1.000000     N
    N   1.0     0.893815     0.998192     0.338723  Biso 1.000000     N
    N   1.0     0.106089     0.492901     0.339242  Biso 1.000000     N
    N   1.0     0.106126     0.993473     0.339436  Biso 1.000000     N
    N   1.0     0.606139     0.493192     0.339394  Biso 1.000000     N
    N   1.0     0.606055     0.992952     0.339286  Biso 1.000000     N
    N   1.0     0.498966     0.397744     0.841996  Biso 1.000000     N
    N   1.0     0.501654     0.899129     0.839661  Biso 1.000000     N
    N   1.0     0.000000     0.399137     0.839455  Biso 1.000000     N
    N   1.0     0.999045     0.897779     0.841966  Biso 1.000000     N
    N   1.0     0.496627     0.111112     0.839822  Biso 1.000000     N
    N   1.0     0.499468     0.609610     0.837209  Biso 1.000000     N
    N   1.0     0.999354     0.109674     0.837230  Biso 1.000000     N
    N   1.0     0.996636     0.611088     0.840013  Biso 1.000000     N
    N   1.0     0.106130     0.001847     0.661226  Biso 1.000000     N
    N   1.0     0.105855     0.507670     0.661319  Biso 1.000000     N
    N   1.0     0.605904     0.007553     0.661350  Biso 1.000000     N
    N   1.0     0.606070     0.501704     0.661184  Biso 1.000000     N
    N   1.0     0.393920     0.006971     0.660672  Biso 1.000000     N
    N   1.0     0.393777     0.506673     0.660590  Biso 1.000000     N
    N   1.0     0.893818     0.006604     0.660556  Biso 1.000000     N
    N   1.0     0.893846     0.507290     0.660678  Biso 1.000000     N
   Ni   1.0     0.001896     0.250005    -0.002112  Biso 1.000000    Ni
   Ni   1.0    -0.001922     0.750155     0.002114  Biso 1.000000    Ni
   Ni   1.0     0.498049     0.250029     0.002072  Biso 1.000000    Ni
   Ni   1.0     0.501909     0.749853     0.997906  Biso 1.000000    Ni
   Ni   1.0     0.250268    -0.001925     0.500043  Biso 1.000000    Ni
   Ni   1.0     0.249659     0.501919     0.499938  Biso 1.000000    Ni
   Ni   1.0     0.749680     0.001923     0.499930  Biso 1.000000    Ni
   Ni   1.0     0.750233     0.498074     0.500035  Biso 1.000000    Ni
   Zn   1.0     0.000235     0.492656     0.249199  Biso 1.000000    Zn
   Zn   1.0     0.000161     0.995980     0.249340  Biso 1.000000    Zn
   Zn   1.0     0.500137     0.495898     0.249346  Biso 1.000000    Zn
   Zn   1.0     0.500232     0.992585     0.249199  Biso 1.000000    Zn
   Zn   1.0     0.499738     0.007344     0.750775  Biso 1.000000    Zn
   Zn   1.0     0.499807     0.504031     0.750629  Biso 1.000000    Zn
   Zn   1.0     0.999813     0.004082     0.750629  Biso 1.000000    Zn
   Zn   1.0     0.999700     0.507419     0.750770  Biso 1.000000    Zn
