#======================================================================

# CRYSTAL DATA

#----------------------------------------------------------------------

data_VESTA_phase_1


_pd_phase_name                         MOF
_cell_length_a                         22.94400
_cell_length_b                         13.76200
_cell_length_c                         13.79400
_cell_angle_alpha                      101.75100
_cell_angle_beta                       114.57200
_cell_angle_gamma                      90.00000
_symmetry_space_group_name_H-M         "P 1"
_symmetry_Int_Tables_number            1

loop_
_symmetry_equiv_pos_as_xyz
   "x, y, z"

loop_
   _atom_site_label
   _atom_site_occupancy
   _atom_site_fract_x
   _atom_site_fract_y
   _atom_site_fract_z
   _atom_site_adp_type
   _atom_site_B_iso_or_equiv
   _atom_site_type_symbol
    H   1.0     0.480168     0.871421     0.328210  Biso 1.000000     H
    H   1.0     0.993424     0.871426     0.328226  Biso 1.000000     H
    H   1.0     0.386937     0.804815     0.358546  Biso 1.000000     H
    H   1.0     0.900155     0.804805     0.358473  Biso 1.000000     H
    H   1.0     0.359976     0.381733     0.206620  Biso 1.000000     H
    H   1.0     0.873135     0.381736     0.206611  Biso 1.000000     H
    H   1.0     0.348446     0.377856     0.015372  Biso 1.000000     H
    H   1.0     0.861587     0.377837     0.015352  Biso 1.000000     H
    H   1.0     0.041514     0.380785     0.139857  Biso 1.000000     H
    H   1.0     0.554733     0.380808     0.139919  Biso 1.000000     H
    H   1.0     0.044824     0.383067     0.325230  Biso 1.000000     H
    H   1.0     0.558022     0.383054     0.325271  Biso 1.000000     H
    H   1.0     0.374367     0.410684     0.775178  Biso 1.000000     H
    H   1.0     0.887506     0.410571     0.775099  Biso 1.000000     H
    H   1.0     0.367989     0.401196     0.590086  Biso 1.000000     H
    H   1.0     0.881143     0.401142     0.590021  Biso 1.000000     H
    H   1.0     0.053623     0.416947     0.702725  Biso 1.000000     H
    H   1.0     0.566822     0.416952     0.702734  Biso 1.000000     H
    H   1.0     0.068005     0.420747     0.895264  Biso 1.000000     H
    H   1.0     0.581220     0.420793     0.895290  Biso 1.000000     H
    H   1.0     0.314704     0.687946     0.692471  Biso 1.000000     H
    H   1.0     0.827828     0.688038     0.692068  Biso 1.000000     H
    H   1.0     0.206317     0.754635     0.662043  Biso 1.000000     H
    H   1.0     0.719454     0.754668     0.661984  Biso 1.000000     H
    H   1.0     0.254961     0.167107     0.813530  Biso 1.000000     H
    H   1.0     0.768202     0.167091     0.813348  Biso 1.000000     H
    H   1.0     0.339034     0.170717     0.000000  Biso 1.000000     H
    H   1.0     0.852228     0.170640     0.000000  Biso 1.000000     H
    H   1.0     0.483167     0.170003     0.880654  Biso 1.000000     H
    H   1.0     0.996435     0.169888     0.880642  Biso 1.000000     H
    H   1.0     0.393777     0.167909     0.695317  Biso 1.000000     H
    H   1.0     0.907086     0.167841     0.695279  Biso 1.000000     H
    H   1.0     0.498450     0.140037     0.245296  Biso 1.000000     H
    H   1.0     0.000000     0.140110     0.245233  Biso 1.000000     H
    H   1.0     0.071341     0.149221     0.430263  Biso 1.000000     H
    H   1.0     0.584642     0.149219     0.430283  Biso 1.000000     H
    H   1.0     0.213844     0.133077     0.317585  Biso 1.000000     H
    H   1.0     0.727059     0.133099     0.317415  Biso 1.000000     H
    H   1.0     0.132010     0.129740     0.125112  Biso 1.000000     H
    H   1.0     0.645156     0.129673     0.124963  Biso 1.000000     H
    H   1.0     0.031419     0.183388     0.692053  Biso 1.000000     H
    H   1.0     0.544672     0.183369     0.692059  Biso 1.000000     H
    H   1.0     0.124691     0.250007     0.661813  Biso 1.000000     H
    H   1.0     0.637903     0.249987     0.661729  Biso 1.000000     H
    H   1.0     0.151712     0.673086     0.813661  Biso 1.000000     H
    H   1.0     0.664873     0.673101     0.813648  Biso 1.000000     H
    H   1.0     0.163259     0.676976     0.000000  Biso 1.000000     H
    H   1.0     0.676407     0.676979     0.000000  Biso 1.000000     H
    H   1.0     0.470119     0.673999     0.880354  Biso 1.000000     H
    H   1.0     0.983333     0.674025     0.880410  Biso 1.000000     H
    H   1.0     0.466828     0.671752     0.694999  Biso 1.000000     H
    H   1.0     0.980023     0.671753     0.695040  Biso 1.000000     H
    H   1.0     0.137345     0.644254     0.245171  Biso 1.000000     H
    H   1.0     0.650491     0.644138     0.245092  Biso 1.000000     H
    H   1.0     0.143711     0.653691     0.430254  Biso 1.000000     H
    H   1.0     0.656871     0.653629     0.430187  Biso 1.000000     H
    H   1.0     0.458038     0.637849     0.317541  Biso 1.000000     H
    H   1.0     0.971231     0.637869     0.317554  Biso 1.000000     H
    H   1.0     0.443636     0.634004     0.124982  Biso 1.000000     H
    H   1.0     0.956846     0.634059     0.125012  Biso 1.000000     H
    H   1.0     0.197031     0.366772     0.328226  Biso 1.000000     H
    H   1.0     0.710151     0.366863     0.327819  Biso 1.000000     H
    H   1.0     0.305404     0.300146     0.358295  Biso 1.000000     H
    H   1.0     0.818538     0.300174     0.358238  Biso 1.000000     H
    H   1.0     0.256647     0.887737     0.206945  Biso 1.000000     H
    H   1.0     0.769890     0.887726     0.206763  Biso 1.000000     H
    H   1.0     0.172621     0.884175     0.015749  Biso 1.000000     H
    H   1.0     0.685816     0.884106     0.015583  Biso 1.000000     H
    H   1.0     0.028414     0.884931     0.139648  Biso 1.000000     H
    H   1.0     0.541682     0.884813     0.139637  Biso 1.000000     H
    H   1.0     0.117763     0.886990     0.325013  Biso 1.000000     H
    H   1.0     0.631073     0.886914     0.324975  Biso 1.000000     H
    H   1.0     0.013282     0.914716     0.775061  Biso 1.000000     H
    H   1.0     0.526400     0.914795     0.774995  Biso 1.000000     H
    H   1.0     0.440208     0.905620     0.590011  Biso 1.000000     H
    H   1.0     0.953510     0.905618     0.590032  Biso 1.000000     H
    H   1.0     0.297791     0.921726     0.702877  Biso 1.000000     H
    H   1.0     0.811006     0.921743     0.702707  Biso 1.000000     H
    H   1.0     0.379694     0.925146     0.895328  Biso 1.000000     H
    H   1.0     0.892840     0.925068     0.895177  Biso 1.000000     H
    C   1.0     0.425365     0.072457     0.396328  Biso 1.000000     C
    C   1.0     0.938554     0.072435     0.396211  Biso 1.000000     C
    C   1.0     0.378199     0.036228     0.424140  Biso 1.000000     C
    C   1.0     0.891415     0.036216     0.424079  Biso 1.000000     C
    C   1.0     0.399151     0.884153     0.370184  Biso 1.000000     C
    C   1.0     0.912379     0.884143     0.370128  Biso 1.000000     C
    C   1.0     0.448943     0.921602     0.351197  Biso 1.000000     C
    C   1.0     0.962178     0.921600     0.351165  Biso 1.000000     C
    C   1.0     0.434030     0.182333     0.399142  Biso 1.000000     C
    C   1.0     0.947129     0.182312     0.399001  Biso 1.000000     C
    C   1.0     0.345310     0.105878     0.481006  Biso 1.000000     C
    C   1.0     0.858554     0.105877     0.481005  Biso 1.000000     C
    C   1.0     0.401873     0.382422     0.188462  Biso 1.000000     C
    C   1.0     0.915027     0.382416     0.188439  Biso 1.000000     C
    C   1.0     0.395437     0.380082     0.083145  Biso 1.000000     C
    C   1.0     0.908582     0.380064     0.083115  Biso 1.000000     C
    C   1.0     0.450880     0.379906     0.064176  Biso 1.000000     C
    C   1.0     0.964018     0.379871     0.064129  Biso 1.000000     C
    C   1.0    -0.002385     0.381454     0.152110  Biso 1.000000     C
    C   1.0     0.510831     0.381468     0.152158  Biso 1.000000     C
    C   1.0    -0.000400     0.383748     0.254568  Biso 1.000000     C
    C   1.0     0.512804     0.383749     0.254604  Biso 1.000000     C
    C   1.0     0.478802     0.416399     0.849807  Biso 1.000000     C
    C   1.0     0.991941     0.416325     0.849748  Biso 1.000000     C
    C   1.0     0.418103     0.411442     0.762689  Biso 1.000000     C
    C   1.0     0.931246     0.411367     0.762622  Biso 1.000000     C
    C   1.0     0.414766     0.407326     0.658995  Biso 1.000000     C
    C   1.0     0.927917     0.407268     0.658937  Biso 1.000000     C
    C   1.0     0.012471     0.414109     0.722584  Biso 1.000000     C
    C   1.0     0.525676     0.414134     0.722611  Biso 1.000000     C
    C   1.0     0.020342     0.416841     0.828690  Biso 1.000000     C
    C   1.0     0.533554     0.416887     0.828726  Biso 1.000000     C
    C   1.0     0.225783     0.477788     0.624259  Biso 1.000000     C
    C   1.0     0.738985     0.477826     0.624045  Biso 1.000000     C
    C   1.0     0.164729     0.514064     0.596448  Biso 1.000000     C
    C   1.0     0.677928     0.514072     0.596429  Biso 1.000000     C
    C   1.0     0.212687     0.675288     0.650397  Biso 1.000000     C
    C   1.0     0.725847     0.675327     0.650308  Biso 1.000000     C
    C   1.0     0.271966     0.637789     0.669439  Biso 1.000000     C
    C   1.0     0.785118     0.637864     0.669155  Biso 1.000000     C
    C   1.0     0.232951     0.367881     0.621332  Biso 1.000000     C
    C   1.0     0.746278     0.367930     0.621021  Biso 1.000000     C
    C   1.0     0.103400     0.444427     0.539659  Biso 1.000000     C
    C   1.0     0.616569     0.444485     0.539733  Biso 1.000000     C
    C   1.0     0.305965     0.166894     0.831790  Biso 1.000000     C
    C   1.0     0.819211     0.166865     0.831646  Biso 1.000000     C
    C   1.0     0.352180     0.169100     0.937074  Biso 1.000000     C
    C   1.0     0.865399     0.169046     0.936939  Biso 1.000000     C
    C   1.0     0.417133     0.169859     0.956150  Biso 1.000000     C
    C   1.0     0.930360     0.169776     0.956065  Biso 1.000000     C
    C   1.0     0.433123     0.168977     0.868320  Biso 1.000000     C
    C   1.0     0.946387     0.168911     0.868279  Biso 1.000000     C
    C   1.0     0.383877     0.166771     0.765890  Biso 1.000000     C
    C   1.0     0.897163     0.166707     0.765830  Biso 1.000000     C
    C   1.0     0.052335     0.134178     0.170607  Biso 1.000000     C
    C   1.0     0.565523     0.134130     0.170562  Biso 1.000000     C
    C   1.0     0.035182     0.139131     0.257703  Biso 1.000000     C
    C   1.0     0.548415     0.139109     0.257711  Biso 1.000000     C
    C   1.0     0.083674     0.143059     0.361362  Biso 1.000000     C
    C   1.0     0.596941     0.143059     0.361346  Biso 1.000000     C
    C   1.0     0.162769     0.136048     0.297721  Biso 1.000000     C
    C   1.0     0.675989     0.136057     0.297602  Biso 1.000000     C
    C   1.0     0.117620     0.133574     0.191661  Biso 1.000000     C
    C   1.0     0.630800     0.133545     0.191555  Biso 1.000000     C
    C   1.0     0.086282     0.982379     0.624058  Biso 1.000000     C
    C   1.0     0.599489     0.982343     0.623956  Biso 1.000000     C
    C   1.0     0.133425     0.000000     0.596197  Biso 1.000000     C
    C   1.0     0.646654     0.000000     0.596147  Biso 1.000000     C
    C   1.0     0.112466     0.170670     0.650158  Biso 1.000000     C
    C   1.0     0.625692     0.170648     0.650091  Biso 1.000000     C
    C   1.0     0.062665     0.133213     0.669117  Biso 1.000000     C
    C   1.0     0.575902     0.133193     0.669079  Biso 1.000000     C
    C   1.0     0.077692     0.872498     0.621243  Biso 1.000000     C
    C   1.0     0.590832     0.872466     0.621147  Biso 1.000000     C
    C   1.0     0.166285     0.948934     0.539270  Biso 1.000000     C
    C   1.0     0.679552     0.948930     0.539294  Biso 1.000000     C
    C   1.0     0.109820     0.672397     0.831829  Biso 1.000000     C
    C   1.0     0.622977     0.672399     0.831804  Biso 1.000000     C
    C   1.0     0.116264     0.674745     0.937153  Biso 1.000000     C
    C   1.0     0.629414     0.674734     0.937122  Biso 1.000000     C
    C   1.0     0.060829     0.674942     0.956141  Biso 1.000000     C
    C   1.0     0.573973     0.674914     0.956094  Biso 1.000000     C
    C   1.0     0.514020     0.673327     0.868108  Biso 1.000000     C
    C   1.0     0.000000     0.673351     0.868158  Biso 1.000000     C
    C   1.0     0.512047     0.671060     0.765665  Biso 1.000000     C
    C   1.0     0.000000     0.671064     0.765701  Biso 1.000000     C
    C   1.0     0.032910     0.638488     0.170524  Biso 1.000000     C
    C   1.0     0.546054     0.638404     0.170465  Biso 1.000000     C
    C   1.0     0.093606     0.643463     0.257652  Biso 1.000000     C
    C   1.0     0.606755     0.643390     0.257586  Biso 1.000000     C
    C   1.0     0.096937     0.647561     0.361338  Biso 1.000000     C
    C   1.0     0.610093     0.647506     0.361279  Biso 1.000000     C
    C   1.0     0.499183     0.640685     0.297667  Biso 1.000000     C
    C   1.0     0.000000     0.640712     0.297694  Biso 1.000000     C
    C   1.0     0.491303     0.637929     0.191550  Biso 1.000000     C
    C   1.0     0.000000     0.637976     0.191586  Biso 1.000000     C
    C   1.0     0.285871     0.576986     0.396238  Biso 1.000000     C
    C   1.0     0.799070     0.577019     0.396015  Biso 1.000000     C
    C   1.0     0.346929     0.540742     0.423845  Biso 1.000000     C
    C   1.0     0.860123     0.540744     0.423822  Biso 1.000000     C
    C   1.0     0.299010     0.379486     0.369971  Biso 1.000000     C
    C   1.0     0.812168     0.379521     0.369882  Biso 1.000000     C
    C   1.0     0.239740     0.416947     0.351135  Biso 1.000000     C
    C   1.0     0.752888     0.417019     0.350844  Biso 1.000000     C
    C   1.0     0.278571     0.686879     0.399253  Biso 1.000000     C
    C   1.0     0.791905     0.686926     0.398942  Biso 1.000000     C
    C   1.0     0.408288     0.610327     0.480535  Biso 1.000000     C
    C   1.0     0.921450     0.610386     0.480610  Biso 1.000000     C
    C   1.0     0.205638     0.887957     0.188646  Biso 1.000000     C
    C   1.0     0.718886     0.887933     0.188502  Biso 1.000000     C
    C   1.0     0.159451     0.885772     0.083352  Biso 1.000000     C
    C   1.0     0.672671     0.885722     0.083217  Biso 1.000000     C
    C   1.0     0.094490     0.885041     0.064224  Biso 1.000000     C
    C   1.0     0.607718     0.884957     0.064142  Biso 1.000000     C
    C   1.0     0.078462     0.885906     0.152010  Biso 1.000000     C
    C   1.0     0.591726     0.885839     0.151971  Biso 1.000000     C
    C   1.0     0.127687     0.888117     0.254461  Biso 1.000000     C
    C   1.0     0.640973     0.888055     0.254402  Biso 1.000000     C
    C   1.0     0.459326     0.920696     0.849728  Biso 1.000000     C
    C   1.0     0.972515     0.920636     0.849684  Biso 1.000000     C
    C   1.0     0.476436     0.915725     0.762581  Biso 1.000000     C
    C   1.0     0.989668     0.915697     0.762591  Biso 1.000000     C
    C   1.0     0.427908     0.911764     0.658946  Biso 1.000000     C
    C   1.0     0.941176     0.911776     0.658933  Biso 1.000000     C
    C   1.0     0.348860     0.918759     0.722688  Biso 1.000000     C
    C   1.0     0.862082     0.918780     0.722572  Biso 1.000000     C
    C   1.0     0.394049     0.921281     0.828737  Biso 1.000000     C
    C   1.0     0.907230     0.921241     0.828630  Biso 1.000000     C
    N   1.0     0.461273     0.000000     0.361123  Biso 1.000000     N
    N   1.0     0.974484     0.000000     0.361041  Biso 1.000000     N
    N   1.0     0.363939     0.946736     0.406758  Biso 1.000000     N
    N   1.0     0.877159     0.946724     0.406688  Biso 1.000000     N
    N   1.0     0.459403     0.384914     0.273328  Biso 1.000000     N
    N   1.0     0.972561     0.384913     0.273300  Biso 1.000000     N
    N   1.0     0.467350     0.409636     0.638521  Biso 1.000000     N
    N   1.0     0.980508     0.409608     0.638486  Biso 1.000000     N
    N   1.0     0.438889     0.422768     0.975075  Biso 1.000000     N
    N   1.0     0.952020     0.422732     0.975018  Biso 1.000000     N
    N   1.0     0.490131     0.420480     0.960035  Biso 1.000000     N
    N   1.0     0.000000     0.420366     0.959959  Biso 1.000000     N
    N   1.0     0.279301     0.539904     0.659511  Biso 1.000000     N
    N   1.0     0.792470     0.539983     0.659161  Biso 1.000000     N
    N   1.0     0.159169     0.612750     0.613807  Biso 1.000000     N
    N   1.0     0.672358     0.612760     0.613851  Biso 1.000000     N
    N   1.0     0.321090     0.164980     0.747050  Biso 1.000000     N
    N   1.0     0.834369     0.164952     0.746940  Biso 1.000000     N
    N   1.0     0.146471     0.140476     0.381781  Biso 1.000000     N
    N   1.0     0.659732     0.140528     0.381713  Biso 1.000000     N
    N   1.0     0.462903     0.126681     0.045171  Biso 1.000000     N
    N   1.0     0.976086     0.126458     0.045072  Biso 1.000000     N
    N   1.0     0.008552     0.130510     0.060484  Biso 1.000000     N
    N   1.0     0.521703     0.130320     0.060423  Biso 1.000000     N
    N   1.0     0.050353     0.035337     0.659232  Biso 1.000000     N
    N   1.0     0.563578     0.035317     0.659158  Biso 1.000000     N
    N   1.0     0.147684     0.108088     0.613595  Biso 1.000000     N
    N   1.0     0.660908     0.108069     0.613524  Biso 1.000000     N
    N   1.0     0.052286     0.669905     0.746970  Biso 1.000000     N
    N   1.0     0.565446     0.669901     0.746938  Biso 1.000000     N
    N   1.0     0.044347     0.645220     0.381791  Biso 1.000000     N
    N   1.0     0.557509     0.645173     0.381751  Biso 1.000000     N
    N   1.0     0.072830     0.632119     0.045260  Biso 1.000000     N
    N   1.0     0.585971     0.632135     0.045214  Biso 1.000000     N
    N   1.0     0.021589     0.634401     0.060302  Biso 1.000000     N
    N   1.0     0.534720     0.634251     0.060222  Biso 1.000000     N
    N   1.0     0.232387     0.514828     0.361132  Biso 1.000000     N
    N   1.0     0.745553     0.514904     0.360769  Biso 1.000000     N
    N   1.0     0.352498     0.442054     0.406419  Biso 1.000000     N
    N   1.0     0.865685     0.442059     0.406465  Biso 1.000000     N
    N   1.0     0.190481     0.889878     0.273354  Biso 1.000000     N
    N   1.0     0.703760     0.889843     0.273240  Biso 1.000000     N
    N   1.0     0.365117     0.914305     0.638580  Biso 1.000000     N
    N   1.0     0.878380     0.914351     0.638511  Biso 1.000000     N
    N   1.0     0.048763     0.928355     0.975218  Biso 1.000000     N
    N   1.0     0.561947     0.928148     0.975125  Biso 1.000000     N
    N   1.0     0.503146     0.924479     0.959862  Biso 1.000000     N
    N   1.0     0.000000     0.924301     0.959806  Biso 1.000000     N
    O   1.0     0.487916     0.230485     0.466920  Biso 1.000000     O
    O   1.0     0.000000     0.230462     0.466621  Biso 1.000000     O
    O   1.0     0.387205     0.217028     0.332439  Biso 1.000000     O
    O   1.0     0.900203     0.217025     0.332526  Biso 1.000000     O
    O   1.0     0.374294     0.188575     0.536423  Biso 1.000000     O
    O   1.0     0.887616     0.188469     0.536672  Biso 1.000000     O
    O   1.0     0.290095     0.070519     0.469825  Biso 1.000000     O
    O   1.0     0.803267     0.070609     0.469604  Biso 1.000000     O
    O   1.0     0.252732     0.319689     0.553272  Biso 1.000000     O
    O   1.0     0.766079     0.319895     0.552932  Biso 1.000000     O
    O   1.0     0.219601     0.333205     0.688167  Biso 1.000000     O
    O   1.0     0.733035     0.333065     0.687863  Biso 1.000000     O
    O   1.0     0.104663     0.361622     0.484431  Biso 1.000000     O
    O   1.0     0.617728     0.361686     0.484392  Biso 1.000000     O
    O   1.0     0.053755     0.479886     0.550709  Biso 1.000000     O
    O   1.0     0.566972     0.479978     0.550932  Biso 1.000000     O
    O   1.0     0.023778     0.824357     0.553616  Biso 1.000000     O
    O   1.0     0.536945     0.824314     0.553370  Biso 1.000000     O
    O   1.0     0.124610     0.837763     0.687711  Biso 1.000000     O
    O   1.0     0.637658     0.837769     0.687844  Biso 1.000000     O
    O   1.0     0.137224     0.866341     0.483606  Biso 1.000000     O
    O   1.0     0.650576     0.866225     0.483886  Biso 1.000000     O
    O   1.0     0.221569     0.984203     0.550662  Biso 1.000000     O
    O   1.0     0.734764     0.984297     0.550475  Biso 1.000000     O
    O   1.0     0.258790     0.734920     0.467369  Biso 1.000000     O
    O   1.0     0.772129     0.735122     0.467009  Biso 1.000000     O
    O   1.0     0.291786     0.721729     0.332376  Biso 1.000000     O
    O   1.0     0.805255     0.721593     0.332102  Biso 1.000000     O
    O   1.0     0.407132     0.693122     0.535887  Biso 1.000000     O
    O   1.0     0.920182     0.693185     0.535844  Biso 1.000000     O
    O   1.0     0.457881     0.574832     0.469320  Biso 1.000000     O
    O   1.0     0.971094     0.574938     0.469551  Biso 1.000000     O
   Cd   1.0     0.463492     0.392675     0.453472  Biso 1.000000    Cd
   Cd   1.0     0.976631     0.392689     0.453462  Biso 1.000000    Cd
   Cd   1.0     0.235154     0.157548     0.566877  Biso 1.000000    Cd
   Cd   1.0     0.748420     0.157663     0.566802  Biso 1.000000    Cd
   Cd   1.0     0.048221     0.662132     0.566810  Biso 1.000000    Cd
   Cd   1.0     0.561362     0.662128     0.566798  Biso 1.000000    Cd
   Cd   1.0     0.276428     0.897151     0.453483  Biso 1.000000    Cd
   Cd   1.0     0.789698     0.897266     0.453417  Biso 1.000000    Cd
