#======================================================================

# CRYSTAL DATA

#----------------------------------------------------------------------

data_VESTA_phase_1


_pd_phase_name                         MOF
_cell_length_a                         15.94500
_cell_length_b                         19.36200
_cell_length_c                         21.91000
_cell_angle_alpha                      64.22800
_cell_angle_beta                       88.74300
_cell_angle_gamma                      76.38200
_symmetry_space_group_name_H-M         "P 1"
_symmetry_Int_Tables_number            1

loop_
_symmetry_equiv_pos_as_xyz
   "x, y, z"

loop_
   _atom_site_label
   _atom_site_occupancy
   _atom_site_fract_x
   _atom_site_fract_y
   _atom_site_fract_z
   _atom_site_adp_type
   _atom_site_B_iso_or_equiv
   _atom_site_type_symbol
    H   1.0     0.046883     0.097234     0.277791  Biso 1.000000     H
    H   1.0     0.044517     0.098500     0.778409  Biso 1.000000     H
    H   1.0     0.046877     0.597244     0.277791  Biso 1.000000     H
    H   1.0     0.044525     0.598506     0.778410  Biso 1.000000     H
    H   1.0     0.546893     0.097236     0.277786  Biso 1.000000     H
    H   1.0     0.544544     0.098498     0.778407  Biso 1.000000     H
    H   1.0     0.546894     0.597245     0.277792  Biso 1.000000     H
    H   1.0     0.544527     0.598513     0.778406  Biso 1.000000     H
    H   1.0     0.346258     0.020449     0.215397  Biso 1.000000     H
    H   1.0     0.343913     0.021712     0.716012  Biso 1.000000     H
    H   1.0     0.346267     0.520453     0.215398  Biso 1.000000     H
    H   1.0     0.343906     0.521720     0.716006  Biso 1.000000     H
    H   1.0     0.846278     0.020450     0.215397  Biso 1.000000     H
    H   1.0     0.843919     0.021715     0.716007  Biso 1.000000     H
    H   1.0     0.846277     0.520457     0.215394  Biso 1.000000     H
    H   1.0     0.843929     0.521720     0.716008  Biso 1.000000     H
    H   1.0     0.209375     0.142198     0.137519  Biso 1.000000     H
    H   1.0     0.207951     0.142797     0.638870  Biso 1.000000     H
    H   1.0     0.209387     0.642211     0.137516  Biso 1.000000     H
    H   1.0     0.207933     0.642792     0.638878  Biso 1.000000     H
    H   1.0     0.709415     0.142224     0.137504  Biso 1.000000     H
    H   1.0     0.707958     0.142801     0.638869  Biso 1.000000     H
    H   1.0     0.709407     0.642228     0.137503  Biso 1.000000     H
    H   1.0     0.707957     0.642793     0.638877  Biso 1.000000     H
    H   1.0     0.139224     0.157907     0.031320  Biso 1.000000     H
    H   1.0     0.139232     0.157953     0.532377  Biso 1.000000     H
    H   1.0     0.139236     0.657918     0.031318  Biso 1.000000     H
    H   1.0     0.139211     0.657939     0.532390  Biso 1.000000     H
    H   1.0     0.639269     0.157937     0.031302  Biso 1.000000     H
    H   1.0     0.639241     0.157955     0.532376  Biso 1.000000     H
    H   1.0     0.639257     0.657939     0.031303  Biso 1.000000     H
    H   1.0     0.639234     0.657941     0.532388  Biso 1.000000     H
    H   1.0     0.146921     0.015302     0.408615  Biso 1.000000     H
    H   1.0     0.146045     0.015084     0.909244  Biso 1.000000     H
    H   1.0     0.146929     0.515306     0.408616  Biso 1.000000     H
    H   1.0     0.146044     0.515094     0.909243  Biso 1.000000     H
    H   1.0     0.646942     0.015299     0.408615  Biso 1.000000     H
    H   1.0     0.646057     0.015088     0.909242  Biso 1.000000     H
    H   1.0     0.646936     0.515309     0.408616  Biso 1.000000     H
    H   1.0     0.646061     0.515092     0.909245  Biso 1.000000     H
    H   1.0    -0.002390     0.295998     0.162724  Biso 1.000000     H
    H   1.0    -0.005009     0.296915     0.662379  Biso 1.000000     H
    H   1.0    -0.002395     0.795988     0.162733  Biso 1.000000     H
    H   1.0    -0.005012     0.796939     0.662368  Biso 1.000000     H
    H   1.0     0.497615     0.295969     0.162739  Biso 1.000000     H
    H   1.0     0.494999     0.296923     0.662373  Biso 1.000000     H
    H   1.0     0.497610     0.795976     0.162738  Biso 1.000000     H
    H   1.0     0.495008     0.796930     0.662374  Biso 1.000000     H
    H   1.0     0.332828     0.101458     0.476035  Biso 1.000000     H
    H   1.0     0.331361     0.102537     0.975783  Biso 1.000000     H
    H   1.0     0.332836     0.601463     0.476035  Biso 1.000000     H
    H   1.0     0.331358     0.602549     0.975780  Biso 1.000000     H
    H   1.0     0.832850     0.101454     0.476035  Biso 1.000000     H
    H   1.0     0.831371     0.102541     0.975782  Biso 1.000000     H
    H   1.0     0.832843     0.601469     0.476032  Biso 1.000000     H
    H   1.0     0.831374     0.602551     0.975780  Biso 1.000000     H
    H   1.0     0.418500     0.319960     0.057704  Biso 1.000000     H
    H   1.0     0.417300     0.320454     0.556923  Biso 1.000000     H
    H   1.0     0.418491     0.819965     0.057705  Biso 1.000000     H
    H   1.0     0.417306     0.820459     0.556927  Biso 1.000000     H
    H   1.0     0.918524     0.319997     0.057686  Biso 1.000000     H
    H   1.0     0.917319     0.320447     0.556930  Biso 1.000000     H
    H   1.0     0.918518     0.819979     0.057698  Biso 1.000000     H
    H   1.0     0.917317     0.820468     0.556920  Biso 1.000000     H
    H   1.0     0.455469     0.401476     0.221562  Biso 1.000000     H
    H   1.0     0.453126     0.402725     0.722191  Biso 1.000000     H
    H   1.0     0.455459     0.901487     0.221561  Biso 1.000000     H
    H   1.0     0.453129     0.902732     0.722197  Biso 1.000000     H
    H   1.0     0.955477     0.401478     0.221560  Biso 1.000000     H
    H   1.0     0.953146     0.402725     0.722190  Biso 1.000000     H
    H   1.0     0.955479     0.901487     0.221564  Biso 1.000000     H
    H   1.0     0.953138     0.902736     0.722191  Biso 1.000000     H
    H   1.0     0.156086     0.478245     0.283970  Biso 1.000000     H
    H   1.0     0.153734     0.479530     0.784581  Biso 1.000000     H
    H   1.0     0.156091     0.978251     0.283971  Biso 1.000000     H
    H   1.0     0.153727     0.979541     0.784580  Biso 1.000000     H
    H   1.0     0.656104     0.478247     0.283969  Biso 1.000000     H
    H   1.0     0.653738     0.479536     0.784579  Biso 1.000000     H
    H   1.0     0.656102     0.978255     0.283963  Biso 1.000000     H
    H   1.0     0.653753     0.979537     0.784579  Biso 1.000000     H
    H   1.0     0.292061     0.357200     0.361096  Biso 1.000000     H
    H   1.0     0.290621     0.357739     0.862477  Biso 1.000000     H
    H   1.0     0.292057     0.857193     0.361106  Biso 1.000000     H
    H   1.0     0.290611     0.857745     0.862477  Biso 1.000000     H
    H   1.0     0.792081     0.357200     0.361098  Biso 1.000000     H
    H   1.0     0.790612     0.357719     0.862490  Biso 1.000000     H
    H   1.0     0.792065     0.857193     0.361105  Biso 1.000000     H
    H   1.0     0.790625     0.857732     0.862485  Biso 1.000000     H
    H   1.0     0.360787     0.342058     0.467580  Biso 1.000000     H
    H   1.0     0.360773     0.342030     0.968675  Biso 1.000000     H
    H   1.0     0.360781     0.842044     0.467594  Biso 1.000000     H
    H   1.0     0.360762     0.842031     0.968678  Biso 1.000000     H
    H   1.0     0.860808     0.342058     0.467583  Biso 1.000000     H
    H   1.0     0.860759     0.342003     0.968692  Biso 1.000000     H
    H   1.0     0.860787     0.842044     0.467593  Biso 1.000000     H
    H   1.0     0.860772     0.842015     0.968687  Biso 1.000000     H
    H   1.0     0.353958     0.484876     0.090738  Biso 1.000000     H
    H   1.0     0.353079     0.484665     0.591369  Biso 1.000000     H
    H   1.0     0.353959     0.984884     0.090741  Biso 1.000000     H
    H   1.0     0.353073     0.984678     0.591369  Biso 1.000000     H
    H   1.0     0.853971     0.484880     0.090740  Biso 1.000000     H
    H   1.0     0.853087     0.484671     0.591367  Biso 1.000000     H
    H   1.0     0.853972     0.984885     0.090739  Biso 1.000000     H
    H   1.0     0.853093     0.984674     0.591369  Biso 1.000000     H
    H   1.0     0.505002     0.203049     0.337606  Biso 1.000000     H
    H   1.0     0.502413     0.203986     0.837243  Biso 1.000000     H
    H   1.0     0.505008     0.703060     0.337605  Biso 1.000000     H
    H   1.0     0.502405     0.703996     0.837240  Biso 1.000000     H
    H   1.0     0.000000     0.203046     0.337610  Biso 1.000000     H
    H   1.0     0.000000     0.204015     0.837228  Biso 1.000000     H
    H   1.0     0.000000     0.703065     0.337602  Biso 1.000000     H
    H   1.0     0.000000     0.704002     0.837238  Biso 1.000000     H
    H   1.0     0.168643     0.397420     0.024201  Biso 1.000000     H
    H   1.0     0.167174     0.398506     0.523950  Biso 1.000000     H
    H   1.0     0.168643     0.897431     0.024202  Biso 1.000000     H
    H   1.0     0.167168     0.898521     0.523949  Biso 1.000000     H
    H   1.0     0.668658     0.397422     0.024204  Biso 1.000000     H
    H   1.0     0.667182     0.398510     0.523950  Biso 1.000000     H
    H   1.0     0.668658     0.897432     0.024199  Biso 1.000000     H
    H   1.0     0.667187     0.898519     0.523948  Biso 1.000000     H
    H   1.0     0.082695     0.179519     0.443055  Biso 1.000000     H
    H   1.0     0.081529     0.180034     0.942256  Biso 1.000000     H
    H   1.0     0.082695     0.679539     0.443048  Biso 1.000000     H
    H   1.0     0.081523     0.680014     0.942271  Biso 1.000000     H
    H   1.0     0.582707     0.179525     0.443051  Biso 1.000000     H
    H   1.0     0.581535     0.179999     0.942274  Biso 1.000000     H
    H   1.0     0.582712     0.679532     0.443052  Biso 1.000000     H
    H   1.0     0.581525     0.680005     0.942274  Biso 1.000000     H
    C   1.0     0.228718     0.134769     0.366439  Biso 1.000000     C
    C   1.0     0.226241     0.135689     0.866886  Biso 1.000000     C
    C   1.0     0.228742     0.634761     0.366433  Biso 1.000000     C
    C   1.0     0.226256     0.635686     0.866877  Biso 1.000000     C
    C   1.0     0.728738     0.134766     0.366439  Biso 1.000000     C
    C   1.0     0.726261     0.135685     0.866881  Biso 1.000000     C
    C   1.0     0.728736     0.634775     0.366436  Biso 1.000000     C
    C   1.0     0.726275     0.635683     0.866877  Biso 1.000000     C
    C   1.0     0.238448     0.065519     0.435682  Biso 1.000000     C
    C   1.0     0.237130     0.065987     0.935930  Biso 1.000000     C
    C   1.0     0.238426     0.565541     0.435691  Biso 1.000000     C
    C   1.0     0.237099     0.566013     0.935936  Biso 1.000000     C
    C   1.0     0.738467     0.065516     0.435682  Biso 1.000000     C
    C   1.0     0.737124     0.066000     0.935933  Biso 1.000000     C
    C   1.0     0.738457     0.565531     0.435682  Biso 1.000000     C
    C   1.0     0.737113     0.566015     0.935938  Biso 1.000000     C
    C   1.0     0.191819     0.008153     0.448950  Biso 1.000000     C
    C   1.0     0.191331     0.008024     0.949302  Biso 1.000000     C
    C   1.0     0.191844     0.508144     0.448945  Biso 1.000000     C
    C   1.0     0.191352     0.508017     0.949294  Biso 1.000000     C
    C   1.0     0.691836     0.008152     0.448950  Biso 1.000000     C
    C   1.0     0.691357     0.008017     0.949295  Biso 1.000000     C
    C   1.0     0.691837     0.508159     0.448948  Biso 1.000000     C
    C   1.0     0.691368     0.508018     0.949296  Biso 1.000000     C
    C   1.0     0.296651     0.056728     0.487294  Biso 1.000000     C
    C   1.0     0.295846     0.057317     0.987171  Biso 1.000000     C
    C   1.0     0.296676     0.556722     0.487286  Biso 1.000000     C
    C   1.0     0.295867     0.557315     0.987158  Biso 1.000000     C
    C   1.0     0.796669     0.056725     0.487295  Biso 1.000000     C
    C   1.0     0.795872     0.057311     0.987163  Biso 1.000000     C
    C   1.0     0.796669     0.556736     0.487290  Biso 1.000000     C
    C   1.0     0.795881     0.557316     0.987159  Biso 1.000000     C
    C   1.0     0.373392     0.137767     0.242439  Biso 1.000000     C
    C   1.0     0.371127     0.138981     0.743235  Biso 1.000000     C
    C   1.0     0.373393     0.637769     0.242449  Biso 1.000000     C
    C   1.0     0.371113     0.638997     0.743222  Biso 1.000000     C
    C   1.0     0.873409     0.137761     0.242452  Biso 1.000000     C
    C   1.0     0.871132     0.138992     0.743220  Biso 1.000000     C
    C   1.0     0.873405     0.637773     0.242445  Biso 1.000000     C
    C   1.0     0.871140     0.638993     0.743229  Biso 1.000000     C
    C   1.0     0.027091     0.054344     0.265454  Biso 1.000000     C
    C   1.0     0.024732     0.055627     0.766048  Biso 1.000000     C
    C   1.0     0.027088     0.554358     0.265447  Biso 1.000000     C
    C   1.0     0.024740     0.555632     0.766053  Biso 1.000000     C
    C   1.0     0.527104     0.054352     0.265438  Biso 1.000000     C
    C   1.0     0.524754     0.055617     0.766060  Biso 1.000000     C
    C   1.0     0.527106     0.554358     0.265447  Biso 1.000000     C
    C   1.0     0.524743     0.555636     0.766051  Biso 1.000000     C
    C   1.0     0.414344     0.011027     0.230046  Biso 1.000000     C
    C   1.0     0.411998     0.012294     0.730669  Biso 1.000000     C
    C   1.0     0.414351     0.511031     0.230052  Biso 1.000000     C
    C   1.0     0.411992     0.512310     0.730656  Biso 1.000000     C
    C   1.0     0.914361     0.011019     0.230059  Biso 1.000000     C
    C   1.0     0.912006     0.012305     0.730653  Biso 1.000000     C
    C   1.0     0.914361     0.511033     0.230050  Biso 1.000000     C
    C   1.0     0.912015     0.512309     0.730657  Biso 1.000000     C
    C   1.0     0.144527     0.180545     0.117680  Biso 1.000000     C
    C   1.0     0.143175     0.181074     0.618579  Biso 1.000000     C
    C   1.0     0.144535     0.680553     0.117680  Biso 1.000000     C
    C   1.0     0.143160     0.681074     0.618583  Biso 1.000000     C
    C   1.0     0.644560     0.180559     0.117671  Biso 1.000000     C
    C   1.0     0.643182     0.181077     0.618576  Biso 1.000000     C
    C   1.0     0.644552     0.680565     0.117670  Biso 1.000000     C
    C   1.0     0.643183     0.681072     0.618583  Biso 1.000000     C
    C   1.0     0.104439     0.190524     0.057837  Biso 1.000000     C
    C   1.0     0.103893     0.190755     0.558558  Biso 1.000000     C
    C   1.0     0.104447     0.690530     0.057838  Biso 1.000000     C
    C   1.0     0.103876     0.690751     0.558564  Biso 1.000000     C
    C   1.0     0.604473     0.190539     0.057828  Biso 1.000000     C
    C   1.0     0.603902     0.190759     0.558555  Biso 1.000000     C
    C   1.0     0.604463     0.690542     0.057829  Biso 1.000000     C
    C   1.0     0.603899     0.690750     0.558565  Biso 1.000000     C
    C   1.0     0.021808     0.242533     0.032641  Biso 1.000000     C
    C   1.0     0.021360     0.242713     0.532752  Biso 1.000000     C
    C   1.0     0.021810     0.742529     0.032646  Biso 1.000000     C
    C   1.0     0.021349     0.742717     0.532753  Biso 1.000000     C
    C   1.0     0.521832     0.242530     0.032641  Biso 1.000000     C
    C   1.0     0.521369     0.242717     0.532749  Biso 1.000000     C
    C   1.0     0.521822     0.742534     0.032642  Biso 1.000000     C
    C   1.0     0.521369     0.742713     0.532756  Biso 1.000000     C
    C   1.0     0.482792     0.279696     0.072424  Biso 1.000000     C
    C   1.0     0.481578     0.280168     0.572132  Biso 1.000000     C
    C   1.0     0.482783     0.779699     0.072425  Biso 1.000000     C
    C   1.0     0.481582     0.780168     0.572137  Biso 1.000000     C
    C   1.0     0.982807     0.279716     0.072415  Biso 1.000000     C
    C   1.0     0.981597     0.280161     0.572137  Biso 1.000000     C
    C   1.0     0.982805     0.779706     0.072423  Biso 1.000000     C
    C   1.0     0.981591     0.780175     0.572132  Biso 1.000000     C
    C   1.0     0.026711     0.266714     0.131978  Biso 1.000000     C
    C   1.0     0.024719     0.267448     0.631918  Biso 1.000000     C
    C   1.0     0.026709     0.766708     0.131984  Biso 1.000000     C
    C   1.0     0.024712     0.767465     0.631912  Biso 1.000000     C
    C   1.0     0.526724     0.266697     0.131986  Biso 1.000000     C
    C   1.0     0.524727     0.267454     0.631913  Biso 1.000000     C
    C   1.0     0.526718     0.766703     0.131985  Biso 1.000000     C
    C   1.0     0.524733     0.767458     0.631916  Biso 1.000000     C
    C   1.0     0.439651     0.066671     0.245629  Biso 1.000000     C
    C   1.0     0.437299     0.067920     0.746281  Biso 1.000000     C
    C   1.0     0.439657     0.566683     0.245624  Biso 1.000000     C
    C   1.0     0.437287     0.567929     0.746282  Biso 1.000000     C
    C   1.0     0.939672     0.066679     0.245618  Biso 1.000000     C
    C   1.0     0.937301     0.067916     0.746291  Biso 1.000000     C
    C   1.0     0.939668     0.566684     0.245623  Biso 1.000000     C
    C   1.0     0.937312     0.567926     0.746285  Biso 1.000000     C
    C   1.0     0.273741     0.364285     0.133105  Biso 1.000000     C
    C   1.0     0.271268     0.365211     0.633553  Biso 1.000000     C
    C   1.0     0.273761     0.864279     0.133099  Biso 1.000000     C
    C   1.0     0.271283     0.865210     0.633545  Biso 1.000000     C
    C   1.0     0.773755     0.364288     0.133107  Biso 1.000000     C
    C   1.0     0.771293     0.365205     0.633546  Biso 1.000000     C
    C   1.0     0.773763     0.864288     0.133101  Biso 1.000000     C
    C   1.0     0.771301     0.865208     0.633545  Biso 1.000000     C
    C   1.0     0.262902     0.433956     0.064045  Biso 1.000000     C
    C   1.0     0.261583     0.434429     0.564295  Biso 1.000000     C
    C   1.0     0.262874     0.933981     0.064055  Biso 1.000000     C
    C   1.0     0.261548     0.934461     0.564302  Biso 1.000000     C
    C   1.0     0.762920     0.433956     0.064046  Biso 1.000000     C
    C   1.0     0.761567     0.434449     0.564300  Biso 1.000000     C
    C   1.0     0.762905     0.933973     0.064048  Biso 1.000000     C
    C   1.0     0.761569     0.934457     0.564302  Biso 1.000000     C
    C   1.0     0.308648     0.491953     0.050688  Biso 1.000000     C
    C   1.0     0.308165     0.491826     0.551039  Biso 1.000000     C
    C   1.0     0.308673     0.991944     0.050684  Biso 1.000000     C
    C   1.0     0.308177     0.991827     0.551034  Biso 1.000000     C
    C   1.0     0.808663     0.491955     0.050689  Biso 1.000000     C
    C   1.0     0.808187     0.491821     0.551033  Biso 1.000000     C
    C   1.0     0.808671     0.991957     0.050686  Biso 1.000000     C
    C   1.0     0.808200     0.991821     0.551034  Biso 1.000000     C
    C   1.0     0.204134     0.442655     0.012823  Biso 1.000000     C
    C   1.0     0.203334     0.443247     0.512699  Biso 1.000000     C
    C   1.0     0.204158     0.942652     0.012814  Biso 1.000000     C
    C   1.0     0.203345     0.943251     0.512690  Biso 1.000000     C
    C   1.0     0.704150     0.442656     0.012825  Biso 1.000000     C
    C   1.0     0.703356     0.443243     0.512692  Biso 1.000000     C
    C   1.0     0.704157     0.942662     0.012818  Biso 1.000000     C
    C   1.0     0.703367     0.943247     0.512689  Biso 1.000000     C
    C   1.0     0.128864     0.360980     0.256748  Biso 1.000000     C
    C   1.0     0.126614     0.362202     0.757541  Biso 1.000000     C
    C   1.0     0.128868     0.860990     0.256744  Biso 1.000000     C
    C   1.0     0.126604     0.862208     0.757547  Biso 1.000000     C
    C   1.0     0.628885     0.360981     0.256747  Biso 1.000000     C
    C   1.0     0.626621     0.362204     0.757542  Biso 1.000000     C
    C   1.0     0.628874     0.860984     0.256751  Biso 1.000000     C
    C   1.0     0.626628     0.862212     0.757537  Biso 1.000000     C
    C   1.0     0.475259     0.444349     0.233920  Biso 1.000000     C
    C   1.0     0.472908     0.445614     0.734535  Biso 1.000000     C
    C   1.0     0.475250     0.944357     0.233921  Biso 1.000000     C
    C   1.0     0.472917     0.945625     0.734531  Biso 1.000000     C
    C   1.0     0.975268     0.444351     0.233916  Biso 1.000000     C
    C   1.0     0.972929     0.445612     0.734536  Biso 1.000000     C
    C   1.0     0.975273     0.944363     0.233914  Biso 1.000000     C
    C   1.0     0.972920     0.945622     0.734539  Biso 1.000000     C
    C   1.0     0.087999     0.487664     0.269317  Biso 1.000000     C
    C   1.0     0.085651     0.488947     0.769928  Biso 1.000000     C
    C   1.0     0.088006     0.987675     0.269313  Biso 1.000000     C
    C   1.0     0.085643     0.988956     0.769931  Biso 1.000000     C
    C   1.0     0.588017     0.487664     0.269319  Biso 1.000000     C
    C   1.0     0.585655     0.488952     0.769926  Biso 1.000000     C
    C   1.0     0.588014     0.987670     0.269317  Biso 1.000000     C
    C   1.0     0.585670     0.988961     0.769918  Biso 1.000000     C
    C   1.0     0.356834     0.318919     0.381390  Biso 1.000000     C
    C   1.0     0.355474     0.319401     0.882310  Biso 1.000000     C
    C   1.0     0.356833     0.818915     0.381398  Biso 1.000000     C
    C   1.0     0.355465     0.819407     0.882311  Biso 1.000000     C
    C   1.0     0.856854     0.318919     0.381392  Biso 1.000000     C
    C   1.0     0.855471     0.319391     0.882318  Biso 1.000000     C
    C   1.0     0.856841     0.818916     0.381396  Biso 1.000000     C
    C   1.0     0.855481     0.819397     0.882316  Biso 1.000000     C
    C   1.0     0.396121     0.309245     0.441406  Biso 1.000000     C
    C   1.0     0.395567     0.309426     0.942150  Biso 1.000000     C
    C   1.0     0.396117     0.809237     0.441417  Biso 1.000000     C
    C   1.0     0.395556     0.809430     0.942151  Biso 1.000000     C
    C   1.0     0.896140     0.309243     0.441410  Biso 1.000000     C
    C   1.0     0.895562     0.309415     0.942158  Biso 1.000000     C
    C   1.0     0.896124     0.809237     0.441415  Biso 1.000000     C
    C   1.0     0.895571     0.809420     0.942157  Biso 1.000000     C
    C   1.0     0.478648     0.257279     0.467218  Biso 1.000000     C
    C   1.0     0.478206     0.257432     0.967337  Biso 1.000000     C
    C   1.0     0.478647     0.757275     0.467225  Biso 1.000000     C
    C   1.0     0.478196     0.757435     0.967338  Biso 1.000000     C
    C   1.0     0.978667     0.257276     0.467221  Biso 1.000000     C
    C   1.0     0.978211     0.257435     0.967337  Biso 1.000000     C
    C   1.0     0.978657     0.757279     0.467222  Biso 1.000000     C
    C   1.0     0.978214     0.757431     0.967342  Biso 1.000000     C
    C   1.0     0.018422     0.219814     0.427844  Biso 1.000000     C
    C   1.0     0.017229     0.220286     0.927544  Biso 1.000000     C
    C   1.0     0.018417     0.719826     0.427840  Biso 1.000000     C
    C   1.0     0.017228     0.720274     0.927553  Biso 1.000000     C
    C   1.0     0.518433     0.219819     0.427839  Biso 1.000000     C
    C   1.0     0.517243     0.220266     0.927554  Biso 1.000000     C
    C   1.0     0.518435     0.719821     0.427843  Biso 1.000000     C
    C   1.0     0.517234     0.720271     0.927554  Biso 1.000000     C
    C   1.0     0.475280     0.232525     0.368062  Biso 1.000000     C
    C   1.0     0.473306     0.233259     0.867996  Biso 1.000000     C
    C   1.0     0.475284     0.732532     0.368064  Biso 1.000000     C
    C   1.0     0.473297     0.733268     0.867994  Biso 1.000000     C
    C   1.0     0.975298     0.232523     0.368065  Biso 1.000000     C
    C   1.0     0.973319     0.233278     0.867987  Biso 1.000000     C
    C   1.0     0.975294     0.732537     0.368060  Biso 1.000000     C
    C   1.0     0.973321     0.733269     0.867994  Biso 1.000000     C
    C   1.0     0.062696     0.432047     0.253692  Biso 1.000000     C
    C   1.0     0.060350     0.433294     0.754355  Biso 1.000000     C
    C   1.0     0.062700     0.932053     0.253697  Biso 1.000000     C
    C   1.0     0.060344     0.933309     0.754348  Biso 1.000000     C
    C   1.0     0.562715     0.432047     0.253694  Biso 1.000000     C
    C   1.0     0.560357     0.433298     0.754352  Biso 1.000000     C
    C   1.0     0.562710     0.932061     0.253682  Biso 1.000000     C
    C   1.0     0.560364     0.933297     0.754363  Biso 1.000000     C
    N   1.0     0.107164     0.218638     0.154159  Biso 1.000000     N
    N   1.0     0.105107     0.219411     0.654682  Biso 1.000000     N
    N   1.0     0.107168     0.718641     0.154161  Biso 1.000000     N
    N   1.0     0.105097     0.719421     0.654681  Biso 1.000000     N
    N   1.0     0.607186     0.218636     0.154159  Biso 1.000000     N
    N   1.0     0.605115     0.219416     0.654679  Biso 1.000000     N
    N   1.0     0.607180     0.718643     0.154158  Biso 1.000000     N
    N   1.0     0.605119     0.719417     0.654683  Biso 1.000000     N
    N   1.0     0.394895     0.280569     0.345294  Biso 1.000000     N
    N   1.0     0.392844     0.281321     0.845823  Biso 1.000000     N
    N   1.0     0.394896     0.780572     0.345298  Biso 1.000000     N
    N   1.0     0.392836     0.781330     0.845822  Biso 1.000000     N
    N   1.0     0.894913     0.280567     0.345297  Biso 1.000000     N
    N   1.0     0.892850     0.281326     0.845822  Biso 1.000000     N
    N   1.0     0.894905     0.780574     0.345296  Biso 1.000000     N
    N   1.0     0.892857     0.781327     0.845824  Biso 1.000000     N
    O   1.0     0.173025     0.141669     0.321691  Biso 1.000000     O
    O   1.0     0.170525     0.142355     0.822261  Biso 1.000000     O
    O   1.0     0.173025     0.641678     0.321693  Biso 1.000000     O
    O   1.0     0.170516     0.642368     0.822261  Biso 1.000000     O
    O   1.0     0.673042     0.141667     0.321692  Biso 1.000000     O
    O   1.0     0.670533     0.142360     0.822260  Biso 1.000000     O
    O   1.0     0.673039     0.641679     0.321690  Biso 1.000000     O
    O   1.0     0.670536     0.642365     0.822260  Biso 1.000000     O
    O   1.0     0.277578     0.180818     0.357564  Biso 1.000000     O
    O   1.0     0.274321     0.182370     0.858037  Biso 1.000000     O
    O   1.0     0.277577     0.680829     0.357566  Biso 1.000000     O
    O   1.0     0.274314     0.682383     0.858035  Biso 1.000000     O
    O   1.0     0.777594     0.180818     0.357565  Biso 1.000000     O
    O   1.0     0.774329     0.182376     0.858036  Biso 1.000000     O
    O   1.0     0.777592     0.680827     0.357563  Biso 1.000000     O
    O   1.0     0.774331     0.682382     0.858035  Biso 1.000000     O
    O   1.0     0.295213     0.145047     0.224148  Biso 1.000000     O
    O   1.0     0.292908     0.146447     0.724890  Biso 1.000000     O
    O   1.0     0.295217     0.645053     0.224148  Biso 1.000000     O
    O   1.0     0.292893     0.646454     0.724886  Biso 1.000000     O
    O   1.0     0.795233     0.145049     0.224148  Biso 1.000000     O
    O   1.0     0.792911     0.146448     0.724888  Biso 1.000000     O
    O   1.0     0.795228     0.645056     0.224146  Biso 1.000000     O
    O   1.0     0.792920     0.646454     0.724887  Biso 1.000000     O
    O   1.0     0.400052     0.185076     0.258909  Biso 1.000000     O
    O   1.0     0.397897     0.186100     0.759889  Biso 1.000000     O
    O   1.0     0.400054     0.685085     0.258909  Biso 1.000000     O
    O   1.0     0.397881     0.686112     0.759882  Biso 1.000000     O
    O   1.0     0.900071     0.185077     0.258910  Biso 1.000000     O
    O   1.0     0.897900     0.186102     0.759886  Biso 1.000000     O
    O   1.0     0.900066     0.685087     0.258907  Biso 1.000000     O
    O   1.0     0.897909     0.686108     0.759887  Biso 1.000000     O
    O   1.0     0.329474     0.357605     0.177724  Biso 1.000000     O
    O   1.0     0.326981     0.358299     0.678293  Biso 1.000000     O
    O   1.0     0.329473     0.857614     0.177726  Biso 1.000000     O
    O   1.0     0.326973     0.858317     0.678292  Biso 1.000000     O
    O   1.0     0.829492     0.357606     0.177725  Biso 1.000000     O
    O   1.0     0.826989     0.358308     0.678292  Biso 1.000000     O
    O   1.0     0.829486     0.857615     0.177724  Biso 1.000000     O
    O   1.0     0.826993     0.858312     0.678292  Biso 1.000000     O
    O   1.0     0.225681     0.317589     0.141945  Biso 1.000000     O
    O   1.0     0.222440     0.319137     0.642422  Biso 1.000000     O
    O   1.0     0.225681     0.817598     0.141946  Biso 1.000000     O
    O   1.0     0.222433     0.819153     0.642423  Biso 1.000000     O
    O   1.0     0.725700     0.317588     0.141947  Biso 1.000000     O
    O   1.0     0.722448     0.319144     0.642423  Biso 1.000000     O
    O   1.0     0.725694     0.817599     0.141944  Biso 1.000000     O
    O   1.0     0.722451     0.819150     0.642422  Biso 1.000000     O
    O   1.0     0.207084     0.353515     0.275093  Biso 1.000000     O
    O   1.0     0.204790     0.354916     0.775842  Biso 1.000000     O
    O   1.0     0.207087     0.853521     0.275095  Biso 1.000000     O
    O   1.0     0.204782     0.854926     0.775840  Biso 1.000000     O
    O   1.0     0.707103     0.353515     0.275095  Biso 1.000000     O
    O   1.0     0.704797     0.354920     0.775840  Biso 1.000000     O
    O   1.0     0.707095     0.853522     0.275090  Biso 1.000000     O
    O   1.0     0.704804     0.854922     0.775841  Biso 1.000000     O
    O   1.0     0.102092     0.313864     0.240090  Biso 1.000000     O
    O   1.0     0.099953     0.314888     0.741078  Biso 1.000000     O
    O   1.0     0.102095     0.813871     0.240092  Biso 1.000000     O
    O   1.0     0.099945     0.814901     0.741074  Biso 1.000000     O
    O   1.0     0.602112     0.313863     0.240093  Biso 1.000000     O
    O   1.0     0.599961     0.314891     0.741077  Biso 1.000000     O
    O   1.0     0.602102     0.813874     0.240086  Biso 1.000000     O
    O   1.0     0.599966     0.814896     0.741078  Biso 1.000000     O
   Zn   1.0     0.184413     0.225441     0.224810  Biso 1.000000    Zn
   Zn   1.0     0.181738     0.226573     0.725505  Biso 1.000000    Zn
   Zn   1.0     0.184416     0.725447     0.224811  Biso 1.000000    Zn
   Zn   1.0     0.181726     0.726583     0.725504  Biso 1.000000    Zn
   Zn   1.0     0.684430     0.225440     0.224812  Biso 1.000000    Zn
   Zn   1.0     0.681743     0.226576     0.725504  Biso 1.000000    Zn
   Zn   1.0     0.684426     0.725449     0.224808  Biso 1.000000    Zn
   Zn   1.0     0.681751     0.726581     0.725504  Biso 1.000000    Zn
   Zn   1.0     0.318260     0.273396     0.274483  Biso 1.000000    Zn
   Zn   1.0     0.315590     0.274525     0.775175  Biso 1.000000    Zn
   Zn   1.0     0.318264     0.773403     0.274484  Biso 1.000000    Zn
   Zn   1.0     0.315584     0.774537     0.775170  Biso 1.000000    Zn
   Zn   1.0     0.818280     0.273396     0.274484  Biso 1.000000    Zn
   Zn   1.0     0.815600     0.274530     0.775171  Biso 1.000000    Zn
   Zn   1.0     0.818272     0.773404     0.274482  Biso 1.000000    Zn
   Zn   1.0     0.815605     0.774534     0.775172  Biso 1.000000    Zn
