#======================================================================

# CRYSTAL DATA

#----------------------------------------------------------------------

data_VESTA_phase_1


_pd_phase_name                         MOF
_cell_length_a                         13.07000
_cell_length_b                         15.24800
_cell_length_c                         19.14200
_cell_angle_alpha                      89.98400
_cell_angle_beta                       89.99600
_cell_angle_gamma                      89.96400
_symmetry_space_group_name_H-M         "P 1"
_symmetry_Int_Tables_number            1

loop_
_symmetry_equiv_pos_as_xyz
   "x, y, z"

loop_
   _atom_site_label
   _atom_site_occupancy
   _atom_site_fract_x
   _atom_site_fract_y
   _atom_site_fract_z
   _atom_site_adp_type
   _atom_site_B_iso_or_equiv
   _atom_site_type_symbol
    H   1.0     0.490988     0.721952     0.268913  Biso 1.000000     H
    H   1.0     0.383903     0.593506     0.307937  Biso 1.000000     H
    H   1.0     0.585038     0.425119     0.189890  Biso 1.000000     H
    H   1.0     0.686225     0.558887     0.157318  Biso 1.000000     H
    H   1.0     0.532548     0.909078     0.083002  Biso 1.000000     H
    H   1.0     0.397817     0.911095     0.987987  Biso 1.000000     H
    H   1.0     0.487009     0.647731     0.935634  Biso 1.000000     H
    H   1.0     0.615456     0.654413     0.034274  Biso 1.000000     H
    H   1.0     0.000000     0.278115     0.768814  Biso 1.000000     H
    H   1.0     0.117201     0.406196     0.807655  Biso 1.000000     H
    H   1.0     0.916569     0.575282     0.689809  Biso 1.000000     H
    H   1.0     0.814747     0.441823     0.657343  Biso 1.000000     H
    H   1.0     0.968212     0.091260     0.583316  Biso 1.000000     H
    H   1.0     0.101976     0.089159     0.487671  Biso 1.000000     H
    H   1.0     0.000000     0.352214     0.435085  Biso 1.000000     H
    H   1.0     0.884143     0.345584     0.534289  Biso 1.000000     H
    H   1.0     0.508941     0.221995     0.231048  Biso 1.000000     H
    H   1.0     0.616013     0.093465     0.191985  Biso 1.000000     H
    H   1.0     0.414933     0.925202     0.310072  Biso 1.000000     H
    H   1.0     0.313808     0.059078     0.342711  Biso 1.000000     H
    H   1.0     0.467164     0.409199     0.417030  Biso 1.000000     H
    H   1.0     0.601884     0.411258     0.512049  Biso 1.000000     H
    H   1.0     0.512999     0.147941     0.564621  Biso 1.000000     H
    H   1.0     0.384557     0.154592     0.465960  Biso 1.000000     H
    H   1.0    -0.009405     0.778073     0.731138  Biso 1.000000     H
    H   1.0     0.882871     0.906291     0.692255  Biso 1.000000     H
    H   1.0     0.083399     0.075089     0.810174  Biso 1.000000     H
    H   1.0     0.185178     0.941475     0.842697  Biso 1.000000     H
    H   1.0     0.031739     0.591005     0.916731  Biso 1.000000     H
    H   1.0     0.898031     0.588987     0.012396  Biso 1.000000     H
    H   1.0    -0.011695     0.851928     0.064931  Biso 1.000000     H
    H   1.0     0.115819     0.845201     0.965722  Biso 1.000000     H
    H   1.0     0.509062     0.278024     0.731126  Biso 1.000000     H
    H   1.0     0.616142     0.406471     0.692101  Biso 1.000000     H
    H   1.0     0.414990     0.574858     0.810135  Biso 1.000000     H
    H   1.0     0.313809     0.441087     0.842710  Biso 1.000000     H
    H   1.0     0.467475     0.090892     0.917031  Biso 1.000000     H
    H   1.0     0.602202     0.088877     0.012049  Biso 1.000000     H
    H   1.0     0.512998     0.352239     0.064401  Biso 1.000000     H
    H   1.0     0.384552     0.345552     0.965761  Biso 1.000000     H
    H   1.0    -0.009429     0.721864     0.231205  Biso 1.000000     H
    H   1.0     0.882832     0.593784     0.192365  Biso 1.000000     H
    H   1.0     0.083456     0.424695     0.310212  Biso 1.000000     H
    H   1.0     0.185282     0.558151     0.342679  Biso 1.000000     H
    H   1.0     0.031796     0.908712     0.416695  Biso 1.000000     H
    H   1.0     0.898034     0.910817     0.512341  Biso 1.000000     H
    H   1.0    -0.011663     0.647769     0.564939  Biso 1.000000     H
    H   1.0     0.115879     0.654396     0.465733  Biso 1.000000     H
    H   1.0     0.491088     0.777986     0.768987  Biso 1.000000     H
    H   1.0     0.384018     0.906518     0.808045  Biso 1.000000     H
    H   1.0     0.585098     0.074774     0.689951  Biso 1.000000     H
    H   1.0     0.686222     0.940896     0.657317  Biso 1.000000     H
    H   1.0     0.532833     0.590783     0.583017  Biso 1.000000     H
    H   1.0     0.398104     0.588726     0.488005  Biso 1.000000     H
    H   1.0     0.487042     0.852022     0.435397  Biso 1.000000     H
    H   1.0     0.615489     0.845368     0.534056  Biso 1.000000     H
    H   1.0     0.000000     0.221904     0.268887  Biso 1.000000     H
    H   1.0     0.117149     0.093687     0.307770  Biso 1.000000     H
    H   1.0     0.916630     0.924889     0.189844  Biso 1.000000     H
    H   1.0     0.814844     0.058501     0.157326  Biso 1.000000     H
    H   1.0     0.968270     0.408969     0.083285  Biso 1.000000     H
    H   1.0     0.101988     0.410987     0.987626  Biso 1.000000     H
    H   1.0     0.000000     0.148036     0.935099  Biso 1.000000     H
    H   1.0     0.884215     0.154764     0.034302  Biso 1.000000     H
    C   1.0     0.508680     0.655192     0.252613  Biso 1.000000     C
    C   1.0     0.449513     0.584295     0.273656  Biso 1.000000     C
    C   1.0     0.475580     0.500010     0.250953  Biso 1.000000     C
    C   1.0     0.561619     0.489830     0.208137  Biso 1.000000     C
    C   1.0     0.617963     0.563866     0.189773  Biso 1.000000     C
    C   1.0     0.414117     0.422273     0.275437  Biso 1.000000     C
    C   1.0     0.518819     0.852481     0.049525  Biso 1.000000     C
    C   1.0     0.445709     0.853696    -0.003133  Biso 1.000000     C
    C   1.0     0.431707     0.778750     0.955855  Biso 1.000000     C
    C   1.0     0.494844     0.706209     0.967802  Biso 1.000000     C
    C   1.0     0.565518     0.709638     0.022109  Biso 1.000000     C
    C   1.0     0.344654     0.775253     0.904333  Biso 1.000000     C
    C   1.0     0.992072     0.344937     0.752478  Biso 1.000000     C
    C   1.0     0.051587     0.415635     0.773422  Biso 1.000000     C
    C   1.0     0.025856     0.500017     0.750734  Biso 1.000000     C
    C   1.0     0.939766     0.510486     0.708029  Biso 1.000000     C
    C   1.0     0.883061     0.436635     0.689735  Biso 1.000000     C
    C   1.0     0.087586     0.577563     0.775315  Biso 1.000000     C
    C   1.0     0.981506     0.147784     0.549648  Biso 1.000000     C
    C   1.0     0.054037     0.146508     0.496630  Biso 1.000000     C
    C   1.0     0.067443     0.221354     0.455366  Biso 1.000000     C
    C   1.0     0.000000     0.293814     0.467415  Biso 1.000000     C
    C   1.0     0.934169     0.290455     0.522063  Biso 1.000000     C
    C   1.0     0.154074     0.225012     0.403521  Biso 1.000000     C
    C   1.0     0.491256     0.155241     0.247343  Biso 1.000000     C
    C   1.0     0.550436     0.084305     0.226297  Biso 1.000000     C
    C   1.0     0.524354     0.000031     0.248988  Biso 1.000000     C
    C   1.0     0.438362    -0.010093     0.291845  Biso 1.000000     C
    C   1.0     0.382026     0.063995     0.310213  Biso 1.000000     C
    C   1.0     0.585890     0.922260     0.224536  Biso 1.000000     C
    C   1.0     0.480969     0.352613     0.450547  Biso 1.000000     C
    C   1.0     0.554070     0.353857     0.503210  Biso 1.000000     C
    C   1.0     0.568178     0.278921     0.544271  Biso 1.000000     C
    C   1.0     0.505096     0.206403     0.532405  Biso 1.000000     C
    C   1.0     0.434440     0.209804     0.478077  Biso 1.000000     C
    C   1.0     0.655250     0.275376     0.595783  Biso 1.000000     C
    C   1.0     0.007982     0.844867     0.747468  Biso 1.000000     C
    C   1.0     0.948437     0.915630     0.726531  Biso 1.000000     C
    C   1.0     0.974186     0.999970     0.749207  Biso 1.000000     C
    C   1.0     0.060207     0.000000     0.791972  Biso 1.000000     C
    C   1.0     0.116920     0.936397     0.810252  Biso 1.000000     C
    C   1.0     0.912395     0.077581     0.724641  Biso 1.000000     C
    C   1.0     0.018462     0.647527     0.950395  Biso 1.000000     C
    C   1.0     0.945948     0.646285     0.000000  Biso 1.000000     C
    C   1.0     0.932561     0.721140     0.044670  Biso 1.000000     C
    C   1.0    -0.004284     0.793537     0.032608  Biso 1.000000     C
    C   1.0     0.065797     0.790122     0.977961  Biso 1.000000     C
    C   1.0     0.845978     0.724904     0.096553  Biso 1.000000     C
    C   1.0     0.491369     0.344784     0.747426  Biso 1.000000     C
    C   1.0     0.550527     0.415683     0.726377  Biso 1.000000     C
    C   1.0     0.524459     0.499968     0.749079  Biso 1.000000     C
    C   1.0     0.438412     0.510147     0.791888  Biso 1.000000     C
    C   1.0     0.382077     0.436109     0.810260  Biso 1.000000     C
    C   1.0     0.585910     0.577708     0.724586  Biso 1.000000     C
    C   1.0     0.481203     0.147489     0.950508  Biso 1.000000     C
    C   1.0     0.554306     0.146274     0.000000  Biso 1.000000     C
    C   1.0     0.568309     0.221224     0.044179  Biso 1.000000     C
    C   1.0     0.505164     0.293760     0.032234  Biso 1.000000     C
    C   1.0     0.434496     0.290331     0.977923  Biso 1.000000     C
    C   1.0     0.655362     0.224727     0.095701  Biso 1.000000     C
    C   1.0     0.007956     0.655042     0.247548  Biso 1.000000     C
    C   1.0     0.948452     0.584344     0.226592  Biso 1.000000     C
    C   1.0     0.974168     0.499963     0.249290  Biso 1.000000     C
    C   1.0     0.060268     0.489490     0.291985  Biso 1.000000     C
    C   1.0     0.116963     0.563342     0.310293  Biso 1.000000     C
    C   1.0     0.912449     0.422419     0.224696  Biso 1.000000     C
    C   1.0     0.018504     0.852190     0.450364  Biso 1.000000     C
    C   1.0     0.945978     0.853469     0.503385  Biso 1.000000     C
    C   1.0     0.932574     0.778625     0.544651  Biso 1.000000     C
    C   1.0    -0.004257     0.706167     0.532607  Biso 1.000000     C
    C   1.0     0.065848     0.709523     0.477955  Biso 1.000000     C
    C   1.0     0.845951     0.774972     0.596502  Biso 1.000000     C
    C   1.0     0.508783     0.844741     0.752699  Biso 1.000000     C
    C   1.0     0.449588     0.915677     0.773727  Biso 1.000000     C
    C   1.0     0.475682     0.999951     0.751043  Biso 1.000000     C
    C   1.0     0.561663     0.000000     0.708174  Biso 1.000000     C
    C   1.0     0.618013     0.935982     0.689825  Biso 1.000000     C
    C   1.0     0.414131     0.077722     0.775476  Biso 1.000000     C
    C   1.0     0.519007     0.647377     0.549513  Biso 1.000000     C
    C   1.0     0.445950     0.646113     0.496823  Biso 1.000000     C
    C   1.0     0.431826     0.721059     0.455777  Biso 1.000000     C
    C   1.0     0.494954     0.793556     0.467608  Biso 1.000000     C
    C   1.0     0.565564     0.790173     0.521964  Biso 1.000000     C
    C   1.0     0.344790     0.724586     0.404235  Biso 1.000000     C
    C   1.0     0.992044     0.155111     0.252551  Biso 1.000000     C
    C   1.0     0.051578     0.084346     0.273498  Biso 1.000000     C
    C   1.0     0.025844     0.000009     0.250811  Biso 1.000000     C
    C   1.0     0.939814    -0.010347     0.208055  Biso 1.000000     C
    C   1.0     0.883109     0.063580     0.189765  Biso 1.000000     C
    C   1.0     0.087629     0.922397     0.275383  Biso 1.000000     C
    C   1.0     0.981566     0.352440     0.049631  Biso 1.000000     C
    C   1.0     0.054065     0.353691    -0.003412  Biso 1.000000     C
    C   1.0     0.067475     0.278828     0.955359  Biso 1.000000     C
    C   1.0     0.000000     0.206434     0.967413  Biso 1.000000     C
    C   1.0     0.934245     0.209840     0.022069  Biso 1.000000     C
    C   1.0     0.154043     0.275080     0.903464  Biso 1.000000     C
    N   1.0     0.591892     0.645410     0.211216  Biso 1.000000     N
    N   1.0     0.576341     0.780898     0.063312  Biso 1.000000     N
    N   1.0     0.908795     0.355005     0.711189  Biso 1.000000     N
    N   1.0     0.923945     0.219308     0.563493  Biso 1.000000     N
    N   1.0     0.408098     0.145533     0.288793  Biso 1.000000     N
    N   1.0     0.423529     0.281039     0.436811  Biso 1.000000     N
    N   1.0     0.091190     0.854802     0.788822  Biso 1.000000     N
    N   1.0     0.076020     0.718994     0.936531  Biso 1.000000     N
    N   1.0     0.408148     0.354566     0.788815  Biso 1.000000     N
    N   1.0     0.423674     0.219069     0.936722  Biso 1.000000     N
    N   1.0     0.091244     0.644970     0.288826  Biso 1.000000     N
    N   1.0     0.076071     0.780669     0.436524  Biso 1.000000     N
    N   1.0     0.591925     0.854443     0.711233  Biso 1.000000     N
    N   1.0     0.576515     0.718924     0.563209  Biso 1.000000     N
    N   1.0     0.908827     0.145173     0.211206  Biso 1.000000     N
    N   1.0     0.923992     0.280980     0.063483  Biso 1.000000     N
    O   1.0     0.431013     0.347991     0.246992  Biso 1.000000     O
    O   1.0     0.350929     0.433465     0.325047  Biso 1.000000     O
    O   1.0     0.338233     0.707748     0.864566  Biso 1.000000     O
    O   1.0     0.280116     0.836951     0.905018  Biso 1.000000     O
    O   1.0     0.070859     0.651959     0.746851  Biso 1.000000     O
    O   1.0     0.150581     0.566256     0.824968  Biso 1.000000     O
    O   1.0     0.160376     0.292723     0.363966  Biso 1.000000     O
    O   1.0     0.218564     0.163257     0.403824  Biso 1.000000     O
    O   1.0     0.569009     0.847970     0.252986  Biso 1.000000     O
    O   1.0     0.649072     0.933431     0.174931  Biso 1.000000     O
    O   1.0     0.661766     0.207853     0.635557  Biso 1.000000     O
    O   1.0     0.719770     0.337026     0.595056  Biso 1.000000     O
    O   1.0     0.929154     0.151966     0.753068  Biso 1.000000     O
    O   1.0     0.849404     0.066345     0.675001  Biso 1.000000     O
    O   1.0     0.839650     0.792660     0.136029  Biso 1.000000     O
    O   1.0     0.781532     0.663181     0.096362  Biso 1.000000     O
    O   1.0     0.569013     0.651990     0.753031  Biso 1.000000     O
    O   1.0     0.649098     0.566517     0.674976  Biso 1.000000     O
    O   1.0     0.661791     0.292240     0.135458  Biso 1.000000     O
    O   1.0     0.719904     0.163032     0.095016  Biso 1.000000     O
    O   1.0     0.929165     0.348023     0.253165  Biso 1.000000     O
    O   1.0     0.849446     0.433730     0.175048  Biso 1.000000     O
    O   1.0     0.839647     0.707258     0.636053  Biso 1.000000     O
    O   1.0     0.781464     0.836729     0.596204  Biso 1.000000     O
    O   1.0     0.431023     0.152013     0.747031  Biso 1.000000     O
    O   1.0     0.350958     0.066557     0.825087  Biso 1.000000     O
    O   1.0     0.338255     0.792121     0.364476  Biso 1.000000     O
    O   1.0     0.280239     0.662961     0.404990  Biso 1.000000     O
    O   1.0     0.070877     0.848015     0.246949  Biso 1.000000     O
    O   1.0     0.150629     0.933637     0.325017  Biso 1.000000     O
    O   1.0     0.160381     0.207324     0.863989  Biso 1.000000     O
    O   1.0     0.218500     0.336795     0.903673  Biso 1.000000     O
   Cd   1.0     0.671494     0.772601     0.168635  Biso 1.000000    Cd
   Cd   1.0     0.828948     0.228006     0.668751  Biso 1.000000    Cd
   Cd   1.0     0.328531     0.272717     0.331430  Biso 1.000000    Cd
   Cd   1.0     0.171071     0.727757     0.831293  Biso 1.000000    Cd
   Cd   1.0     0.328537     0.227376     0.831389  Biso 1.000000    Cd
   Cd   1.0     0.171079     0.771974     0.331270  Biso 1.000000    Cd
   Cd   1.0     0.671498     0.727263     0.668599  Biso 1.000000    Cd
   Cd   1.0     0.828954     0.272221     0.168728  Biso 1.000000    Cd
