#======================================================================

# CRYSTAL DATA

#----------------------------------------------------------------------

data_VESTA_phase_1


_pd_phase_name                         MOF
_cell_length_a                         18.91900
_cell_length_b                         14.43500
_cell_length_c                         15.84800
_cell_angle_alpha                      90.04000
_cell_angle_beta                       90.96200
_cell_angle_gamma                      90.13300
_symmetry_space_group_name_H-M         "P 1"
_symmetry_Int_Tables_number            1

loop_
_symmetry_equiv_pos_as_xyz
   "x, y, z"

loop_
   _atom_site_label
   _atom_site_occupancy
   _atom_site_fract_x
   _atom_site_fract_y
   _atom_site_fract_z
   _atom_site_adp_type
   _atom_site_B_iso_or_equiv
   _atom_site_type_symbol
    H   1.0     0.224264     0.828748    -0.001806  Biso 1.000000     H
    H   1.0     0.685451     0.828750    -0.001796  Biso 1.000000     H
    H   1.0     0.032904     0.708793     0.092217  Biso 1.000000     H
    H   1.0     0.494101     0.708723     0.092180  Biso 1.000000     H
    H   1.0     0.009398     0.601516     0.773974  Biso 1.000000     H
    H   1.0     0.470644     0.601497     0.773947  Biso 1.000000     H
    H   1.0     0.299287     0.431598     0.641508  Biso 1.000000     H
    H   1.0     0.760535     0.431591     0.641548  Biso 1.000000     H
    H   1.0     0.260671     0.873439     0.907114  Biso 1.000000     H
    H   1.0     0.721901     0.873454     0.907107  Biso 1.000000     H
    H   1.0    -0.061511     0.693810     0.628093  Biso 1.000000     H
    H   1.0     0.399742     0.693806     0.628102  Biso 1.000000     H
    H   1.0     0.360703     0.481649     0.454238  Biso 1.000000     H
    H   1.0     0.821943     0.481646     0.454246  Biso 1.000000     H
    H   1.0    -0.008934     0.484877     0.438394  Biso 1.000000     H
    H   1.0     0.452308     0.484878     0.438385  Biso 1.000000     H
    H   1.0     0.013318     0.546591     0.583125  Biso 1.000000     H
    H   1.0     0.474563     0.546588     0.583116  Biso 1.000000     H
    H   1.0    -0.029391     0.437680     0.581497  Biso 1.000000     H
    H   1.0     0.431853     0.437679     0.581487  Biso 1.000000     H
    H   1.0    -0.045280     0.876108     0.720589  Biso 1.000000     H
    H   1.0     0.415958     0.876125     0.720578  Biso 1.000000     H
    H   1.0     0.441202     0.989885     0.105273  Biso 1.000000     H
    H   1.0     0.902441     0.989891     0.105273  Biso 1.000000     H
    H   1.0     0.065447     0.000000     0.075997  Biso 1.000000     H
    H   1.0     0.526693     0.000000     0.075999  Biso 1.000000     H
    H   1.0     0.434725     0.010230     0.091223  Biso 1.000000     H
    H   1.0     0.895959     0.010234     0.091217  Biso 1.000000     H
    H   1.0     0.388298     0.000000     0.005755  Biso 1.000000     H
    H   1.0     0.849534     0.000000     0.005748  Biso 1.000000     H
    H   1.0     0.412161     0.254634     0.456768  Biso 1.000000     H
    H   1.0     0.873399     0.254625     0.456764  Biso 1.000000     H
    H   1.0     0.142741     0.136203     0.363530  Biso 1.000000     H
    H   1.0     0.603979     0.136201     0.363526  Biso 1.000000     H
    H   1.0     0.050313     0.028837     0.589815  Biso 1.000000     H
    H   1.0     0.511549     0.028835     0.589810  Biso 1.000000     H
    H   1.0     0.224035     0.000000     0.722984  Biso 1.000000     H
    H   1.0     0.685282     0.000000     0.722975  Biso 1.000000     H
    H   1.0     0.262044     0.299897     0.457626  Biso 1.000000     H
    H   1.0     0.723258     0.299881     0.457625  Biso 1.000000     H
    H   1.0     0.120487     0.119752     0.735635  Biso 1.000000     H
    H   1.0     0.581721     0.119754     0.735644  Biso 1.000000     H
    H   1.0     0.278666     0.000000     0.000425  Biso 1.000000     H
    H   1.0     0.739906     0.000000     0.000421  Biso 1.000000     H
    H   1.0     0.187257     0.000000     0.017515  Biso 1.000000     H
    H   1.0     0.648496     0.000000     0.017506  Biso 1.000000     H
    H   1.0     0.049302     0.000000     0.782137  Biso 1.000000     H
    H   1.0     0.510542     0.000000     0.782127  Biso 1.000000     H
    H   1.0     0.091733     0.000000     0.783796  Biso 1.000000     H
    H   1.0     0.552983     0.000000     0.783788  Biso 1.000000     H
    H   1.0     0.106167     0.304558     0.643393  Biso 1.000000     H
    H   1.0     0.567410     0.304583     0.643427  Biso 1.000000     H
    H   1.0     0.198743     0.416270     0.350651  Biso 1.000000     H
    H   1.0     0.659962     0.416257     0.350663  Biso 1.000000     H
    H   1.0     0.113244     0.451891     0.378769  Biso 1.000000     H
    H   1.0     0.574467     0.451890     0.378784  Biso 1.000000     H
    H   1.0     0.203029     0.579992     0.364114  Biso 1.000000     H
    H   1.0     0.664259     0.579980     0.364111  Biso 1.000000     H
    H   1.0     0.251390     0.535317     0.450980  Biso 1.000000     H
    H   1.0     0.712622     0.535308     0.450976  Biso 1.000000     H
    H   1.0     0.125936     0.313139     0.911308  Biso 1.000000     H
    H   1.0     0.587224     0.313141     0.911298  Biso 1.000000     H
    H   1.0     0.317286     0.433148     0.817313  Biso 1.000000     H
    H   1.0     0.778557     0.433234     0.817342  Biso 1.000000     H
    H   1.0     0.340755     0.540396     0.135545  Biso 1.000000     H
    H   1.0     0.801971     0.540435     0.135559  Biso 1.000000     H
    H   1.0     0.050855     0.710284     0.268033  Biso 1.000000     H
    H   1.0     0.512083     0.710291     0.267992  Biso 1.000000     H
    H   1.0     0.089473     0.268446     0.002385  Biso 1.000000     H
    H   1.0     0.550724     0.268436     0.002387  Biso 1.000000     H
    H   1.0     0.411646     0.448069     0.281363  Biso 1.000000     H
    H   1.0     0.872877     0.448076     0.281351  Biso 1.000000     H
    H   1.0    -0.010592     0.660218     0.455248  Biso 1.000000     H
    H   1.0     0.450652     0.660218     0.455240  Biso 1.000000     H
    H   1.0     0.359045     0.656984     0.471081  Biso 1.000000     H
    H   1.0     0.820284     0.656982     0.471089  Biso 1.000000     H
    H   1.0     0.336809     0.595265     0.326346  Biso 1.000000     H
    H   1.0     0.798050     0.595262     0.326353  Biso 1.000000     H
    H   1.0     0.379505     0.704185     0.327984  Biso 1.000000     H
    H   1.0     0.840743     0.704183     0.327993  Biso 1.000000     H
    H   1.0     0.395451     0.265776     0.188938  Biso 1.000000     H
    H   1.0     0.856692     0.265761     0.188948  Biso 1.000000     H
    H   1.0    -0.091073     0.152004     0.804234  Biso 1.000000     H
    H   1.0     0.370173     0.151997     0.804236  Biso 1.000000     H
    H   1.0     0.284684     0.116925     0.833523  Biso 1.000000     H
    H   1.0     0.745917     0.116931     0.833522  Biso 1.000000     H
    H   1.0    -0.084598     0.000000     0.818283  Biso 1.000000     H
    H   1.0     0.376648     0.000000     0.818288  Biso 1.000000     H
    H   1.0    -0.038169     0.033188     0.903751  Biso 1.000000     H
    H   1.0     0.423079     0.033181     0.903755  Biso 1.000000     H
    H   1.0    -0.062007     0.887265     0.452740  Biso 1.000000     H
    H   1.0     0.399243     0.887270     0.452739  Biso 1.000000     H
    H   1.0     0.207422     0.000000     0.545981  Biso 1.000000     H
    H   1.0     0.668656     0.000000     0.545979  Biso 1.000000     H
    H   1.0     0.299844     0.000000     0.319690  Biso 1.000000     H
    H   1.0     0.761080     0.000000     0.319688  Biso 1.000000     H
    H   1.0     0.126126     0.140438     0.186518  Biso 1.000000     H
    H   1.0     0.587346     0.140427     0.186523  Biso 1.000000     H
    H   1.0     0.088091     0.841995     0.451882  Biso 1.000000     H
    H   1.0     0.549347     0.842012     0.451879  Biso 1.000000     H
    H   1.0     0.229664     0.000000     0.173855  Biso 1.000000     H
    H   1.0     0.690897     0.000000     0.173836  Biso 1.000000     H
    H   1.0     0.071472     0.087663     0.909064  Biso 1.000000     H
    H   1.0     0.532695     0.087657     0.909059  Biso 1.000000     H
    H   1.0     0.162878     0.083969     0.891962  Biso 1.000000     H
    H   1.0     0.624103     0.083980     0.891961  Biso 1.000000     H
    H   1.0     0.300848     0.025432     0.127338  Biso 1.000000     H
    H   1.0     0.762075     0.025444     0.127337  Biso 1.000000     H
    H   1.0     0.258417     0.134280     0.125683  Biso 1.000000     H
    H   1.0     0.719633     0.134286     0.125680  Biso 1.000000     H
    H   1.0     0.243996     0.837340     0.266147  Biso 1.000000     H
    H   1.0     0.705224     0.837311     0.266112  Biso 1.000000     H
    H   1.0     0.151387     0.725627     0.558874  Biso 1.000000     H
    H   1.0     0.612636     0.725641     0.558862  Biso 1.000000     H
    H   1.0     0.236885     0.690001     0.530763  Biso 1.000000     H
    H   1.0     0.698131     0.690003     0.530749  Biso 1.000000     H
    H   1.0     0.147099     0.561904     0.545410  Biso 1.000000     H
    H   1.0     0.608338     0.561917     0.545413  Biso 1.000000     H
    H   1.0     0.098740     0.606583     0.458544  Biso 1.000000     H
    H   1.0     0.559977     0.606592     0.458547  Biso 1.000000     H
    C   1.0     0.181515     0.778731    -0.008593  Biso 1.000000     C
    C   1.0     0.642717     0.778713    -0.008591  Biso 1.000000     C
    C   1.0     0.119699     0.723982     0.764079  Biso 1.000000     C
    C   1.0     0.580932     0.723980     0.764085  Biso 1.000000     C
    C   1.0     0.128572     0.776482     0.052317  Biso 1.000000     C
    C   1.0     0.589763     0.776441     0.052309  Biso 1.000000     C
    C   1.0     0.064766     0.716946     0.831720  Biso 1.000000     C
    C   1.0     0.525990     0.716932     0.831718  Biso 1.000000     C
    C   1.0     0.132992     0.843276     0.124820  Biso 1.000000     C
    C   1.0     0.594153     0.843231     0.124817  Biso 1.000000     C
    C   1.0     0.074334     0.711429     0.045675  Biso 1.000000     C
    C   1.0     0.535537     0.711375     0.045647  Biso 1.000000     C
    C   1.0    -0.040858     0.645367     0.888543  Biso 1.000000     C
    C   1.0     0.420364     0.645324     0.888508  Biso 1.000000     C
    C   1.0     0.010748     0.650624     0.826168  Biso 1.000000     C
    C   1.0     0.471980     0.650599     0.826146  Biso 1.000000     C
    C   1.0     0.309033     0.505546     0.646887  Biso 1.000000     C
    C   1.0     0.770276     0.505543     0.646907  Biso 1.000000     C
    C   1.0     0.307062     0.889975     0.870739  Biso 1.000000     C
    C   1.0     0.768297     0.889981     0.870737  Biso 1.000000     C
    C   1.0     0.362395     0.638972     0.641323  Biso 1.000000     C
    C   1.0     0.823628     0.638974     0.641322  Biso 1.000000     C
    C   1.0    -0.052125     0.520901     0.470413  Biso 1.000000     C
    C   1.0     0.409118     0.520902     0.470405  Biso 1.000000     C
    C   1.0    -0.036050     0.510990     0.565224  Biso 1.000000     C
    C   1.0     0.425195     0.510989     0.565215  Biso 1.000000     C
    C   1.0    -0.073610     0.892426     0.777588  Biso 1.000000     C
    C   1.0     0.387632     0.892436     0.777582  Biso 1.000000     C
    C   1.0     0.010337     0.000000     0.053835  Biso 1.000000     C
    C   1.0     0.471583     0.000000     0.053837  Biso 1.000000     C
    C   1.0     0.442580     0.000000     0.031198  Biso 1.000000     C
    C   1.0     0.903817     0.000000     0.031193  Biso 1.000000     C
    C   1.0    -0.006380     0.204794     0.463579  Biso 1.000000     C
    C   1.0     0.454866     0.204805     0.463584  Biso 1.000000     C
    C   1.0     0.401571     0.150655     0.600018  Biso 1.000000     C
    C   1.0     0.862808     0.150648     0.600015  Biso 1.000000     C
    C   1.0     0.046930     0.203111     0.403091  Biso 1.000000     C
    C   1.0     0.508172     0.203116     0.403092  Biso 1.000000     C
    C   1.0    -0.004642     0.144377     0.532424  Biso 1.000000     C
    C   1.0     0.456603     0.144387     0.532428  Biso 1.000000     C
    C   1.0     0.043254     0.269851     0.330657  Biso 1.000000     C
    C   1.0     0.504493     0.269852     0.330655  Biso 1.000000     C
    C   1.0     0.101076     0.138322     0.409764  Biso 1.000000     C
    C   1.0     0.562315     0.138323     0.409762  Biso 1.000000     C
    C   1.0     0.101194     0.073632     0.475925  Biso 1.000000     C
    C   1.0     0.562431     0.073630     0.475921  Biso 1.000000     C
    C   1.0     0.049290     0.078260     0.537935  Biso 1.000000     C
    C   1.0     0.510530     0.078262     0.537933  Biso 1.000000     C
    C   1.0     0.214451     0.000000     0.717433  Biso 1.000000     C
    C   1.0     0.675698     0.000000     0.717432  Biso 1.000000     C
    C   1.0     0.215800     0.317192     0.493895  Biso 1.000000     C
    C   1.0     0.677021     0.317185     0.493903  Biso 1.000000     C
    C   1.0     0.157797     0.065010     0.722650  Biso 1.000000     C
    C   1.0     0.619039     0.065022     0.722659  Biso 1.000000     C
    C   1.0     0.115664     0.000000     0.894195  Biso 1.000000     C
    C   1.0     0.576901     0.000000     0.894189  Biso 1.000000     C
    C   1.0     0.098695     0.000000     0.799649  Biso 1.000000     C
    C   1.0     0.559938     0.000000     0.799642  Biso 1.000000     C
    C   1.0     0.134972     0.320707     0.586684  Biso 1.000000     C
    C   1.0     0.596210     0.320722     0.586710  Biso 1.000000     C
    C   1.0     0.168126     0.447163     0.401652  Biso 1.000000     C
    C   1.0     0.629350     0.447159     0.401664  Biso 1.000000     C
    C   1.0     0.197556     0.542971     0.424292  Biso 1.000000     C
    C   1.0     0.658787     0.542966     0.424293  Biso 1.000000     C
    C   1.0     0.168672     0.363174     0.918098  Biso 1.000000     C
    C   1.0     0.629949     0.363190     0.918099  Biso 1.000000     C
    C   1.0     0.230470     0.417918     0.145425  Biso 1.000000     C
    C   1.0     0.691717     0.417920     0.145422  Biso 1.000000     C
    C   1.0     0.221622     0.365439     0.857195  Biso 1.000000     C
    C   1.0     0.682906     0.365484     0.857202  Biso 1.000000     C
    C   1.0     0.285406     0.424959     0.077786  Biso 1.000000     C
    C   1.0     0.746659     0.424976     0.077788  Biso 1.000000     C
    C   1.0     0.217226     0.298645     0.784692  Biso 1.000000     C
    C   1.0     0.678540     0.298703     0.784687  Biso 1.000000     C
    C   1.0     0.275852     0.430502     0.863849  Biso 1.000000     C
    C   1.0     0.737118     0.430569     0.863871  Biso 1.000000     C
    C   1.0     0.391029     0.496559     0.020984  Biso 1.000000     C
    C   1.0     0.852276     0.496621     0.021009  Biso 1.000000     C
    C   1.0     0.339416     0.491290     0.083350  Biso 1.000000     C
    C   1.0     0.800654     0.491330     0.083362  Biso 1.000000     C
    C   1.0     0.041108     0.636338     0.262630  Biso 1.000000     C
    C   1.0     0.502344     0.636342     0.262609  Biso 1.000000     C
    C   1.0     0.043086     0.251912     0.038769  Biso 1.000000     C
    C   1.0     0.504335     0.251908     0.038768  Biso 1.000000     C
    C   1.0    -0.012254     0.502912     0.268151  Biso 1.000000     C
    C   1.0     0.448992     0.502908     0.268154  Biso 1.000000     C
    C   1.0     0.402239     0.620962     0.439067  Biso 1.000000     C
    C   1.0     0.863479     0.620961     0.439075  Biso 1.000000     C
    C   1.0     0.386170     0.630875     0.344256  Biso 1.000000     C
    C   1.0     0.847410     0.630874     0.344264  Biso 1.000000     C
    C   1.0     0.423772     0.249461     0.131933  Biso 1.000000     C
    C   1.0     0.885012     0.249453     0.131940  Biso 1.000000     C
    C   1.0     0.339796     0.121454     0.855677  Biso 1.000000     C
    C   1.0     0.801031     0.121461     0.855674  Biso 1.000000     C
    C   1.0    -0.092452     0.025662     0.878308  Biso 1.000000     C
    C   1.0     0.368795     0.025657     0.878313  Biso 1.000000     C
    C   1.0     0.356540     0.937102     0.445925  Biso 1.000000     C
    C   1.0     0.817771     0.937093     0.445922  Biso 1.000000     C
    C   1.0    -0.051411     0.991251     0.309492  Biso 1.000000     C
    C   1.0     0.409835     0.991254     0.309493  Biso 1.000000     C
    C   1.0     0.303233     0.938788     0.506417  Biso 1.000000     C
    C   1.0     0.764463     0.938780     0.506413  Biso 1.000000     C
    C   1.0     0.354800     0.997518     0.377080  Biso 1.000000     C
    C   1.0     0.816034     0.997510     0.377078  Biso 1.000000     C
    C   1.0     0.306912     0.872052     0.578853  Biso 1.000000     C
    C   1.0     0.768143     0.872049     0.578853  Biso 1.000000     C
    C   1.0     0.249086     0.000000     0.499745  Biso 1.000000     C
    C   1.0     0.710319     0.000000     0.499742  Biso 1.000000     C
    C   1.0     0.248965     0.000000     0.433582  Biso 1.000000     C
    C   1.0     0.710200     0.000000     0.433579  Biso 1.000000     C
    C   1.0     0.300868     0.000000     0.371571  Biso 1.000000     C
    C   1.0     0.762103     0.000000     0.371568  Biso 1.000000     C
    C   1.0     0.135710     0.066554     0.192071  Biso 1.000000     C
    C   1.0     0.596932     0.066543     0.192069  Biso 1.000000     C
    C   1.0     0.134341     0.824702     0.415623  Biso 1.000000     C
    C   1.0     0.595590     0.824708     0.415612  Biso 1.000000     C
    C   1.0     0.192361     0.000000     0.186848  Biso 1.000000     C
    C   1.0     0.653588     0.000000     0.186832  Biso 1.000000     C
    C   1.0     0.234476     0.050155     0.015288  Biso 1.000000     C
    C   1.0     0.695704     0.050157     0.015284  Biso 1.000000     C
    C   1.0     0.251453     0.060845     0.109832  Biso 1.000000     C
    C   1.0     0.712676     0.060850     0.109828  Biso 1.000000     C
    C   1.0     0.215183     0.821190     0.322851  Biso 1.000000     C
    C   1.0     0.676417     0.821171     0.322823  Biso 1.000000     C
    C   1.0     0.182004     0.694732     0.507874  Biso 1.000000     C
    C   1.0     0.643250     0.694737     0.507863  Biso 1.000000     C
    C   1.0     0.152573     0.598926     0.485232  Biso 1.000000     C
    C   1.0     0.613811     0.598932     0.485232  Biso 1.000000     C
    N   1.0     0.267435     0.565001     0.684891  Biso 1.000000     N
    N   1.0     0.728677     0.565000     0.684908  Biso 1.000000     N
    N   1.0     0.325330     0.849908     0.797838  Biso 1.000000     N
    N   1.0     0.786566     0.849908     0.797841  Biso 1.000000     N
    N   1.0    -0.105159     0.953750     0.892291  Biso 1.000000     N
    N   1.0     0.356086     0.953749     0.892290  Biso 1.000000     N
    N   1.0     0.301580     0.649898     0.680643  Biso 1.000000     N
    N   1.0     0.762816     0.649900     0.680647  Biso 1.000000     N
    N   1.0    -0.091372     0.573452     0.878962  Biso 1.000000     N
    N   1.0     0.369858     0.573398     0.878918  Biso 1.000000     N
    N   1.0     0.369089     0.548900     0.618312  Biso 1.000000     N
    N   1.0     0.830326     0.548900     0.618320  Biso 1.000000     N
    N   1.0    -0.052971     0.956037     0.833264  Biso 1.000000     N
    N   1.0     0.408270     0.956047     0.833258  Biso 1.000000     N
    N   1.0     0.256170     0.000000     0.679227  Biso 1.000000     N
    N   1.0     0.717418     0.000000     0.679239  Biso 1.000000     N
    N   1.0     0.196597     0.276926     0.566340  Biso 1.000000     N
    N   1.0     0.657824     0.276926     0.566353  Biso 1.000000     N
    N   1.0     0.167948     0.382292     0.472680  Biso 1.000000     N
    N   1.0     0.629174     0.382294     0.472696  Biso 1.000000     N
    N   1.0     0.218605     0.075794     0.683255  Biso 1.000000     N
    N   1.0     0.679852     0.075817     0.683275  Biso 1.000000     N
    N   1.0     0.155216     0.000000     0.485205  Biso 1.000000     N
    N   1.0     0.616453     0.000000     0.485202  Biso 1.000000     N
    N   1.0     0.154503     0.000000     0.745878  Biso 1.000000     N
    N   1.0     0.615746     0.000000     0.745875  Biso 1.000000     N
    N   1.0     0.115585     0.385254     0.531469  Biso 1.000000     N
    N   1.0     0.576820     0.385270     0.531497  Biso 1.000000     N
    N   1.0     0.082717     0.576892     0.224631  Biso 1.000000     N
    N   1.0     0.543955     0.576895     0.224614  Biso 1.000000     N
    N   1.0     0.024831     0.291978     0.111674  Biso 1.000000     N
    N   1.0     0.486077     0.291980     0.111670  Biso 1.000000     N
    N   1.0     0.455304     0.188140     0.017223  Biso 1.000000     N
    N   1.0     0.916540     0.188143     0.017222  Biso 1.000000     N
    N   1.0     0.048571     0.491994     0.228852  Biso 1.000000     N
    N   1.0     0.509816     0.491992     0.228850  Biso 1.000000     N
    N   1.0     0.441536     0.568483     0.030570  Biso 1.000000     N
    N   1.0     0.902779     0.568552     0.030607  Biso 1.000000     N
    N   1.0    -0.018955     0.592978     0.291175  Biso 1.000000     N
    N   1.0     0.442287     0.592977     0.291166  Biso 1.000000     N
    N   1.0     0.403124     0.185852     0.076260  Biso 1.000000     N
    N   1.0     0.864363     0.185846     0.076264  Biso 1.000000     N
    N   1.0     0.093997     0.007223     0.230291  Biso 1.000000     N
    N   1.0     0.555221     0.007204     0.230282  Biso 1.000000     N
    N   1.0     0.153555     0.864969     0.343182  Biso 1.000000     N
    N   1.0     0.614799     0.864966     0.343166  Biso 1.000000     N
    N   1.0     0.182191     0.759603     0.436847  Biso 1.000000     N
    N   1.0     0.643435     0.759601     0.436831  Biso 1.000000     N
    N   1.0     0.131560     0.000000     0.226260  Biso 1.000000     N
    N   1.0     0.592787     0.000000     0.226241  Biso 1.000000     N
    N   1.0     0.194943    -0.003745     0.424303  Biso 1.000000     N
    N   1.0     0.656178    -0.003750     0.424298  Biso 1.000000     N
    N   1.0     0.195651     0.023187     0.163612  Biso 1.000000     N
    N   1.0     0.656876     0.023184     0.163606  Biso 1.000000     N
    N   1.0     0.234563     0.756643     0.378069  Biso 1.000000     N
    N   1.0     0.695798     0.756625     0.378041  Biso 1.000000     N
    O   1.0     0.176753     0.768924     0.788137  Biso 1.000000     O
    O   1.0     0.637984     0.768922     0.788150  Biso 1.000000     O
    O   1.0     0.076271     0.852425     0.169438  Biso 1.000000     O
    O   1.0     0.537454     0.852299     0.169486  Biso 1.000000     O
    O   1.0     0.189622     0.886271     0.139018  Biso 1.000000     O
    O   1.0     0.650751     0.886309     0.138988  Biso 1.000000     O
    O   1.0     0.108520     0.690053     0.692841  Biso 1.000000     O
    O   1.0     0.569761     0.690051     0.692845  Biso 1.000000     O
    O   1.0     0.343841     0.193345     0.575638  Biso 1.000000     O
    O   1.0     0.805079     0.193342     0.575638  Biso 1.000000     O
    O   1.0     0.100394     0.278305     0.286546  Biso 1.000000     O
    O   1.0     0.561633     0.278309     0.286544  Biso 1.000000     O
    O   1.0    -0.013003     0.313088     0.316003  Biso 1.000000     O
    O   1.0     0.448234     0.313087     0.316003  Biso 1.000000     O
    O   1.0    -0.047671     0.118027     0.671547  Biso 1.000000     O
    O   1.0     0.413571     0.118024     0.671547  Biso 1.000000     O
    O   1.0     0.173414     0.372982     0.121364  Biso 1.000000     O
    O   1.0     0.634664     0.372981     0.121356  Biso 1.000000     O
    O   1.0     0.273932     0.289555     0.740039  Biso 1.000000     O
    O   1.0     0.735222     0.289710     0.739976  Biso 1.000000     O
    O   1.0     0.160620     0.255590     0.770512  Biso 1.000000     O
    O   1.0     0.621972     0.255550     0.770544  Biso 1.000000     O
    O   1.0     0.241647     0.451849     0.216663  Biso 1.000000     O
    O   1.0     0.702889     0.451844     0.216664  Biso 1.000000     O
    O   1.0     0.006317     0.948556     0.333872  Biso 1.000000     O
    O   1.0     0.467563     0.948558     0.333872  Biso 1.000000     O
    O   1.0     0.249772     0.863594     0.622962  Biso 1.000000     O
    O   1.0     0.711004     0.863595     0.622966  Biso 1.000000     O
    O   1.0     0.363168     0.828812     0.593506  Biso 1.000000     O
    O   1.0     0.824399     0.828811     0.593506  Biso 1.000000     O
    O   1.0     0.397836     0.000000     0.237963  Biso 1.000000     O
    O   1.0     0.859075     0.000000     0.237963  Biso 1.000000     O
   Zn   1.0     0.259797     0.772526     0.717393  Biso 1.000000    Zn
   Zn   1.0     0.721030     0.772526     0.717398  Biso 1.000000    Zn
   Zn   1.0     0.260728     0.197672     0.646418  Biso 1.000000    Zn
   Zn   1.0     0.721972     0.197695     0.646431  Biso 1.000000    Zn
   Zn   1.0     0.090372     0.369374     0.192114  Biso 1.000000    Zn
   Zn   1.0     0.551619     0.369376     0.192109  Biso 1.000000    Zn
   Zn   1.0     0.089438     0.944242     0.263103  Biso 1.000000    Zn
   Zn   1.0     0.550675     0.944222     0.263088  Biso 1.000000    Zn
