#======================================================================

# CRYSTAL DATA

#----------------------------------------------------------------------

data_VESTA_phase_1


_pd_phase_name                         MOF
_cell_length_a                         18.40700
_cell_length_b                         18.41600
_cell_length_c                         18.41100
_cell_angle_alpha                      60.32800
_cell_angle_beta                       60.25100
_cell_angle_gamma                      60.28300
_symmetry_space_group_name_H-M         "P 1"
_symmetry_Int_Tables_number            1

loop_
_symmetry_equiv_pos_as_xyz
   "x, y, z"

loop_
   _atom_site_label
   _atom_site_occupancy
   _atom_site_fract_x
   _atom_site_fract_y
   _atom_site_fract_z
   _atom_site_adp_type
   _atom_site_B_iso_or_equiv
   _atom_site_type_symbol
    H   1.0     0.164308     0.452477     0.452527  Biso 1.000000     H
    H   1.0     0.451773     0.164127     0.932001  Biso 1.000000     H
    H   1.0     0.451651     0.932157     0.164225  Biso 1.000000     H
    H   1.0     0.932240     0.451252     0.451280  Biso 1.000000     H
    H   1.0     0.164345     0.451660     0.931953  Biso 1.000000     H
    H   1.0     0.451190     0.932394     0.451161  Biso 1.000000     H
    H   1.0     0.452731     0.164101     0.452670  Biso 1.000000     H
    H   1.0     0.931796     0.451778     0.164224  Biso 1.000000     H
    H   1.0     0.164345     0.932124     0.451592  Biso 1.000000     H
    H   1.0     0.452668     0.452551     0.164195  Biso 1.000000     H
    H   1.0     0.451254     0.451204     0.932304  Biso 1.000000     H
    H   1.0     0.931805     0.164124     0.451841  Biso 1.000000     H
    H   1.0     0.547288     0.835895     0.547329  Biso 1.000000     H
    H   1.0     0.835675     0.548335     0.068044  Biso 1.000000     H
    H   1.0     0.068224     0.548217     0.835774  Biso 1.000000     H
    H   1.0     0.548829     0.067602     0.548838  Biso 1.000000     H
    H   1.0     0.548244     0.835867     0.067999  Biso 1.000000     H
    H   1.0     0.067778     0.548740     0.548722  Biso 1.000000     H
    H   1.0     0.835710     0.547515     0.547475  Biso 1.000000     H
    H   1.0     0.548366     0.067838     0.835775  Biso 1.000000     H
    H   1.0     0.068214     0.835871     0.548157  Biso 1.000000     H
    H   1.0     0.547352     0.547443     0.835803  Biso 1.000000     H
    H   1.0     0.548766     0.548791     0.067694  Biso 1.000000     H
    H   1.0     0.835675     0.067871     0.548407  Biso 1.000000     H
    C   1.0     0.092329     0.473668     0.473708  Biso 1.000000     C
    C   1.0     0.473292     0.092233     0.961001  Biso 1.000000     C
    C   1.0     0.473227     0.961079     0.092283  Biso 1.000000     C
    C   1.0     0.961170     0.472984     0.473010  Biso 1.000000     C
    C   1.0     0.092350     0.473223     0.960987  Biso 1.000000     C
    C   1.0     0.472960     0.961246     0.472936  Biso 1.000000     C
    C   1.0     0.473822     0.092215     0.473777  Biso 1.000000     C
    C   1.0     0.960909     0.473282     0.092282  Biso 1.000000     C
    C   1.0     0.092349     0.961071     0.473185  Biso 1.000000     C
    C   1.0     0.473789     0.473708     0.092265  Biso 1.000000     C
    C   1.0     0.472995     0.472960     0.961201  Biso 1.000000     C
    C   1.0     0.960910     0.092229     0.473318  Biso 1.000000     C
    C   1.0     0.526199     0.907781     0.526220  Biso 1.000000     C
    C   1.0     0.907670     0.526770     0.039010  Biso 1.000000     C
    C   1.0     0.039111     0.526711     0.907716  Biso 1.000000     C
    C   1.0     0.527061     0.038750     0.527062  Biso 1.000000     C
    C   1.0     0.526721     0.907762     0.038999  Biso 1.000000     C
    C   1.0     0.038849     0.527004     0.526996  Biso 1.000000     C
    C   1.0     0.907690     0.526319     0.526298  Biso 1.000000     C
    C   1.0     0.526787     0.038916     0.907717  Biso 1.000000     C
    C   1.0     0.039110     0.907766     0.526677  Biso 1.000000     C
    C   1.0     0.526234     0.526284     0.907733  Biso 1.000000     C
    C   1.0     0.527027     0.527032     0.038798  Biso 1.000000     C
    C   1.0     0.907670     0.038924     0.526810  Biso 1.000000     C
    C   1.0     0.111298     0.388925     0.389017  Biso 1.000000     C
    C   1.0     0.053831     0.446307     0.446358  Biso 1.000000     C
    C   1.0     0.388631     0.110974     0.110927  Biso 1.000000     C
    C   1.0     0.446153     0.053642     0.053610  Biso 1.000000     C
    C   1.0     0.110859     0.388595     0.110896  Biso 1.000000     C
    C   1.0     0.053579     0.446133     0.053608  Biso 1.000000     C
    C   1.0     0.389127     0.111255     0.389033  Biso 1.000000     C
    C   1.0     0.446420     0.053823     0.446354  Biso 1.000000     C
    C   1.0     0.110863     0.110952     0.388613  Biso 1.000000     C
    C   1.0     0.053576     0.053641     0.446147  Biso 1.000000     C
    C   1.0     0.389126     0.388945     0.111262  Biso 1.000000     C
    C   1.0     0.446426     0.446302     0.053819  Biso 1.000000     C
    C   1.0     0.610895     0.888741     0.610963  Biso 1.000000     C
    C   1.0     0.553596     0.946173     0.553649  Biso 1.000000     C
    C   1.0     0.889161     0.611401     0.889102  Biso 1.000000     C
    C   1.0     0.946441     0.553864     0.946390  Biso 1.000000     C
    C   1.0     0.611381     0.889021     0.889073  Biso 1.000000     C
    C   1.0     0.553872     0.946352     0.946390  Biso 1.000000     C
    C   1.0     0.888720     0.611063     0.610989  Biso 1.000000     C
    C   1.0     0.946187     0.553693     0.553635  Biso 1.000000     C
    C   1.0     0.889157     0.889042     0.611381  Biso 1.000000     C
    C   1.0     0.946444     0.946353     0.553859  Biso 1.000000     C
    C   1.0     0.610896     0.611048     0.888736  Biso 1.000000     C
    C   1.0     0.553590     0.553696     0.946179  Biso 1.000000     C
    O   1.0     0.250049     0.250059     0.250051  Biso 1.000000     O
    O   1.0     0.749970     0.749936     0.749949  Biso 1.000000     O
    O   1.0     0.195093     0.366988     0.367215  Biso 1.000000     O
    O   1.0     0.366355     0.194630     0.071416  Biso 1.000000     O
    O   1.0     0.366465     0.071508     0.194635  Biso 1.000000     O
    O   1.0     0.071713     0.366641     0.366637  Biso 1.000000     O
    O   1.0     0.194645     0.366456     0.071346  Biso 1.000000     O
    O   1.0     0.366676     0.071751     0.366733  Biso 1.000000     O
    O   1.0     0.367418     0.194952     0.367118  Biso 1.000000     O
    O   1.0     0.071266     0.366282     0.194624  Biso 1.000000     O
    O   1.0     0.194641     0.071462     0.366538  Biso 1.000000     O
    O   1.0     0.367469     0.366926     0.195006  Biso 1.000000     O
    O   1.0     0.366654     0.366708     0.071718  Biso 1.000000     O
    O   1.0     0.071285     0.194620     0.366256  Biso 1.000000     O
    O   1.0     0.632602     0.805044     0.632881  Biso 1.000000     O
    O   1.0     0.805374     0.633538     0.928652  Biso 1.000000     O
    O   1.0     0.928754     0.633711     0.805374  Biso 1.000000     O
    O   1.0     0.633346     0.928245     0.633264  Biso 1.000000     O
    O   1.0     0.633662     0.805364     0.928584  Biso 1.000000     O
    O   1.0     0.928306     0.633349     0.633365  Biso 1.000000     O
    O   1.0     0.804926     0.633005     0.632786  Biso 1.000000     O
    O   1.0     0.633550     0.928487     0.805364  Biso 1.000000     O
    O   1.0     0.928735     0.805374     0.633739  Biso 1.000000     O
    O   1.0     0.632552     0.633068     0.804992  Biso 1.000000     O
    O   1.0     0.633367     0.633285     0.928281  Biso 1.000000     O
    O   1.0     0.805378     0.928533     0.633461  Biso 1.000000     O
   Zn   1.0     0.294041     0.293602     0.293786  Biso 1.000000    Zn
   Zn   1.0     0.293150     0.293229     0.119684  Biso 1.000000    Zn
   Zn   1.0     0.293194     0.119783     0.293253  Biso 1.000000    Zn
   Zn   1.0     0.119583     0.293142     0.293120  Biso 1.000000    Zn
   Zn   1.0     0.705979     0.706393     0.706213  Biso 1.000000    Zn
   Zn   1.0     0.706869     0.706766     0.880315  Biso 1.000000    Zn
   Zn   1.0     0.880436     0.706853     0.706878  Biso 1.000000    Zn
   Zn   1.0     0.706826     0.880212     0.706747  Biso 1.000000    Zn
