#======================================================================

# CRYSTAL DATA

#----------------------------------------------------------------------

data_VESTA_phase_1


_pd_phase_name                         MOF
_cell_length_a                         17.23300
_cell_length_b                         17.25600
_cell_length_c                         17.40700
_cell_angle_alpha                      93.24000
_cell_angle_beta                       93.06500
_cell_angle_gamma                      89.30200
_symmetry_space_group_name_H-M         "P 1"
_symmetry_Int_Tables_number            1

loop_
_symmetry_equiv_pos_as_xyz
   "x, y, z"

loop_
   _atom_site_label
   _atom_site_occupancy
   _atom_site_fract_x
   _atom_site_fract_y
   _atom_site_fract_z
   _atom_site_adp_type
   _atom_site_B_iso_or_equiv
   _atom_site_type_symbol
    H   1.0     0.157035     0.825575     0.619126  Biso 1.000000     H
    H   1.0     0.300941     0.834518     0.617151  Biso 1.000000     H
    H   1.0     0.308568     0.940033     0.847876  Biso 1.000000     H
    H   1.0     0.164470     0.933885     0.847669  Biso 1.000000     H
    H   1.0     0.406457     0.926691     0.618292  Biso 1.000000     H
    H   1.0     0.550745     0.918275     0.617606  Biso 1.000000     H
    H   1.0     0.560278     0.833839     0.845298  Biso 1.000000     H
    H   1.0     0.416286     0.844529     0.847876  Biso 1.000000     H
    H   1.0     0.821069     0.964357     0.284487  Biso 1.000000     H
    H   1.0     0.811280     0.961940     0.426263  Biso 1.000000     H
    H   1.0     0.829895     0.152268     0.608267  Biso 1.000000     H
    H   1.0     0.837139     0.296427     0.605358  Biso 1.000000     H
    H   1.0     0.901374     0.310980     0.848345  Biso 1.000000     H
    H   1.0     0.898259     0.166837     0.849553  Biso 1.000000     H
    H   1.0     0.934736     0.403985     0.625262  Biso 1.000000     H
    H   1.0     0.931662     0.548578     0.626069  Biso 1.000000     H
    H   1.0     0.794532     0.558164     0.825267  Biso 1.000000     H
    H   1.0     0.800675     0.413860     0.827621  Biso 1.000000     H
    H   1.0     0.937392     0.741686     0.282744  Biso 1.000000     H
    H   1.0     0.929187     0.741103     0.425127  Biso 1.000000     H
    H   1.0     0.169304     0.840947     0.382707  Biso 1.000000     H
    H   1.0     0.161917     0.697052     0.383562  Biso 1.000000     H
    H   1.0     0.063329     0.688889     0.150381  Biso 1.000000     H
    H   1.0     0.068140     0.832943     0.151513  Biso 1.000000     H
    H   1.0     0.070675     0.591552     0.379795  Biso 1.000000     H
    H   1.0     0.079061     0.447480     0.380320  Biso 1.000000     H
    H   1.0     0.169861     0.437826     0.154979  Biso 1.000000     H
    H   1.0     0.159022     0.581641     0.152430  Biso 1.000000     H
    H   1.0     0.031887     0.180446     0.716427  Biso 1.000000     H
    H   1.0     0.034440     0.190227     0.574594  Biso 1.000000     H
    H   1.0     0.846184     0.166560     0.391915  Biso 1.000000     H
    H   1.0     0.701900     0.158065     0.395127  Biso 1.000000     H
    H   1.0     0.688120     0.092668     0.152254  Biso 1.000000     H
    H   1.0     0.832402     0.096961     0.150776  Biso 1.000000     H
    H   1.0     0.594507     0.059086     0.375035  Biso 1.000000     H
    H   1.0     0.449649     0.061396     0.374037  Biso 1.000000     H
    H   1.0     0.440331     0.198574     0.175459  Biso 1.000000     H
    H   1.0     0.584841     0.193171     0.173241  Biso 1.000000     H
    H   1.0     0.254667     0.063962     0.717291  Biso 1.000000     H
    H   1.0     0.255333     0.072047     0.574914  Biso 1.000000     H
    H   1.0     0.834275     0.735836     0.027200  Biso 1.000000     H
    H   1.0     0.841636     0.733387     0.170424  Biso 1.000000     H
    H   1.0     0.918751     0.970771     0.186805  Biso 1.000000     H
    H   1.0     0.915573     0.970954     0.044240  Biso 1.000000     H
    H   1.0     0.261420     0.166566     0.972479  Biso 1.000000     H
    H   1.0     0.262952     0.160404     0.829137  Biso 1.000000     H
    H   1.0     0.025983     0.081362     0.814052  Biso 1.000000     H
    H   1.0     0.026846     0.083093     0.956731  Biso 1.000000     H
    C   1.0     0.066067     0.869255     0.735626  Biso 1.000000     C
    C   1.0     0.152013     0.877937     0.733898  Biso 1.000000     C
    C   1.0     0.190820     0.851262     0.668567  Biso 1.000000     C
    C   1.0     0.271162     0.856709     0.667676  Biso 1.000000     C
    C   1.0     0.315187     0.886848     0.732776  Biso 1.000000     C
    C   1.0     0.275631     0.914658     0.797594  Biso 1.000000     C
    C   1.0     0.194983     0.911295     0.797854  Biso 1.000000     C
    C   1.0     0.401020     0.885976     0.733096  Biso 1.000000     C
    C   1.0     0.440009     0.906344     0.668247  Biso 1.000000     C
    C   1.0     0.520613     0.901842     0.667560  Biso 1.000000     C
    C   1.0     0.564411     0.875095     0.731190  Biso 1.000000     C
    C   1.0     0.526084     0.855033     0.796256  Biso 1.000000     C
    C   1.0     0.445622     0.861433     0.797514  Biso 1.000000     C
    C   1.0     0.650631     0.867032     0.729237  Biso 1.000000     C
    C   1.0     0.844969     0.915353     0.315133  Biso 1.000000     C
    C   1.0     0.839138     0.914141     0.394388  Biso 1.000000     C
    C   1.0     0.858485     0.064998     0.730788  Biso 1.000000     C
    C   1.0     0.863041     0.151013     0.729120  Biso 1.000000     C
    C   1.0     0.846375     0.187688     0.660223  Biso 1.000000     C
    C   1.0     0.850627     0.268007     0.658913  Biso 1.000000     C
    C   1.0     0.868867     0.313599     0.726874  Biso 1.000000     C
    C   1.0     0.885618     0.276272     0.795656  Biso 1.000000     C
    C   1.0     0.884004     0.195822     0.796585  Biso 1.000000     C
    C   1.0     0.867967     0.399113     0.726506  Biso 1.000000     C
    C   1.0     0.903976     0.437713     0.669170  Biso 1.000000     C
    C   1.0     0.902432     0.518306     0.669355  Biso 1.000000     C
    C   1.0     0.862707     0.561918     0.725523  Biso 1.000000     C
    C   1.0     0.825851     0.523811     0.782357  Biso 1.000000     C
    C   1.0     0.829630     0.443398     0.783532  Biso 1.000000     C
    C   1.0     0.859864     0.648236     0.725221  Biso 1.000000     C
    C   1.0     0.853673     0.786563     0.062829  Biso 1.000000     C
    C   1.0     0.857989     0.785494     0.142767  Biso 1.000000     C
    C   1.0     0.900123     0.919109     0.152244  Biso 1.000000     C
    C   1.0     0.898363     0.919509     0.072344  Biso 1.000000     C
    C   1.0     0.908988     0.789636     0.314019  Biso 1.000000     C
    C   1.0     0.904915     0.789253     0.393554  Biso 1.000000     C
    C   1.0     0.867660     0.855816     0.941327  Biso 1.000000     C
    C   1.0     0.873696     0.853723     0.026850  Biso 1.000000     C
    C   1.0     0.879768     0.852189     0.188726  Biso 1.000000     C
    C   1.0     0.878693     0.852475     0.273521  Biso 1.000000     C
    C   1.0     0.868816     0.850925     0.434351  Biso 1.000000     C
    C   1.0     0.861799     0.849298     0.519184  Biso 1.000000     C
    C   1.0     0.128254     0.931591     0.265747  Biso 1.000000     C
    C   1.0     0.120353     0.845669     0.266745  Biso 1.000000     C
    C   1.0     0.145497     0.807025     0.332459  Biso 1.000000     C
    C   1.0     0.140938     0.726703     0.332699  Biso 1.000000     C
    C   1.0     0.113093     0.682599     0.266680  Biso 1.000000     C
    C   1.0     0.086924     0.721958     0.201403  Biso 1.000000     C
    C   1.0     0.089480     0.802559     0.201693  Biso 1.000000     C
    C   1.0     0.114475     0.596901     0.266114  Biso 1.000000     C
    C   1.0     0.092376     0.558018     0.330311  Biso 1.000000     C
    C   1.0     0.096901     0.477551     0.330922  Biso 1.000000     C
    C   1.0     0.125424     0.433794     0.267924  Biso 1.000000     C
    C   1.0     0.147315     0.472000     0.203531  Biso 1.000000     C
    C   1.0     0.140814     0.552353     0.202270  Biso 1.000000     C
    C   1.0     0.133073     0.347688     0.269975  Biso 1.000000     C
    C   1.0     0.080926     0.156528     0.685551  Biso 1.000000     C
    C   1.0     0.082232     0.162358     0.606300  Biso 1.000000     C
    C   1.0     0.933912     0.138098     0.269268  Biso 1.000000     C
    C   1.0     0.847828     0.132834     0.271130  Biso 1.000000     C
    C   1.0     0.810900     0.149515     0.340065  Biso 1.000000     C
    C   1.0     0.730525     0.144552     0.341549  Biso 1.000000     C
    C   1.0     0.685118     0.125607     0.273695  Biso 1.000000     C
    C   1.0     0.722695     0.108898     0.204865  Biso 1.000000     C
    C   1.0     0.803217     0.111194     0.203777  Biso 1.000000     C
    C   1.0     0.599485     0.125880     0.274069  Biso 1.000000     C
    C   1.0     0.560755     0.089617     0.331169  Biso 1.000000     C
    C   1.0     0.480013     0.090713     0.330860  Biso 1.000000     C
    C   1.0     0.436436     0.130260     0.274816  Biso 1.000000     C
    C   1.0     0.474701     0.167312     0.218193  Biso 1.000000     C
    C   1.0     0.555215     0.163981     0.217116  Biso 1.000000     C
    C   1.0     0.349995     0.133564     0.275036  Biso 1.000000     C
    C   1.0     0.210617     0.147000     0.937079  Biso 1.000000     C
    C   1.0     0.211153     0.143405     0.857126  Biso 1.000000     C
    C   1.0     0.077717     0.100157     0.848398  Biso 1.000000     C
    C   1.0     0.077917     0.101096     0.928311  Biso 1.000000     C
    C   1.0     0.206735     0.092374     0.686180  Biso 1.000000     C
    C   1.0     0.207185     0.096409     0.606700  Biso 1.000000     C
    C   1.0     0.142561     0.130992     0.058962  Biso 1.000000     C
    C   1.0     0.143886     0.125912     0.973397  Biso 1.000000     C
    C   1.0     0.144298     0.121345     0.811595  Biso 1.000000     C
    C   1.0     0.143813     0.122741     0.726854  Biso 1.000000     C
    C   1.0     0.145513     0.132541     0.566167  Biso 1.000000     C
    C   1.0     0.147386     0.138972     0.481344  Biso 1.000000     C
    O   1.0     0.032399     0.906877     0.790027  Biso 1.000000     O
    O   1.0     0.033299     0.824224     0.683072  Biso 1.000000     O
    O   1.0     0.685197     0.830293     0.783225  Biso 1.000000     O
    O   1.0     0.910374     0.680204     0.686490  Biso 1.000000     O
    O   1.0     0.900688     0.797121     0.554214  Biso 1.000000     O
    O   1.0     0.896493     0.033796     0.786324  Biso 1.000000     O
    O   1.0     0.817060     0.029918     0.677010  Biso 1.000000     O
    O   1.0     0.807221     0.682789     0.763696  Biso 1.000000     O
    O   1.0     0.682862     0.897116     0.673638  Biso 1.000000     O
    O   1.0     0.816993     0.900170     0.550441  Biso 1.000000     O
    O   1.0     0.857487     0.856470     0.730449  Biso 1.000000     O
    O   1.0     0.900033     0.912829     0.912096  Biso 1.000000     O
    O   1.0     0.830361     0.801075     0.903559  Biso 1.000000     O
    O   1.0     0.093144     0.964870     0.209833  Biso 1.000000     O
    O   1.0     0.170151     0.964906     0.320485  Biso 1.000000     O
    O   1.0     0.172629     0.312903     0.218062  Biso 1.000000     O
    O   1.0     0.317065     0.083552     0.313525  Biso 1.000000     O
    O   1.0     0.199902     0.099793     0.446740  Biso 1.000000     O
    O   1.0     0.965508     0.100160     0.213733  Biso 1.000000     O
    O   1.0     0.968651     0.179986     0.322892  Biso 1.000000     O
    O   1.0     0.316420     0.186499     0.236513  Biso 1.000000     O
    O   1.0     0.099649     0.315929     0.323889  Biso 1.000000     O
    O   1.0     0.096677     0.183391     0.449624  Biso 1.000000     O
    O   1.0     0.142457     0.140277     0.270158  Biso 1.000000     O
    O   1.0     0.086857     0.096716     0.088503  Biso 1.000000     O
    O   1.0     0.196715     0.169409     0.096392  Biso 1.000000     O
   Zn   1.0     0.924220     0.790022     0.666028  Biso 1.000000    Zn
   Zn   1.0     0.793306     0.918115     0.659579  Biso 1.000000    Zn
   Zn   1.0     0.920399     0.923586     0.803290  Biso 1.000000    Zn
   Zn   1.0     0.793748     0.793608     0.793473  Biso 1.000000    Zn
   Zn   1.0     0.206879     0.073156     0.335953  Biso 1.000000    Zn
   Zn   1.0     0.080042     0.205974     0.340023  Biso 1.000000    Zn
   Zn   1.0     0.076142     0.076601     0.197133  Biso 1.000000    Zn
   Zn   1.0     0.206049     0.203153     0.206991  Biso 1.000000    Zn
