#======================================================================

# CRYSTAL DATA

#----------------------------------------------------------------------

data_VESTA_phase_1


_pd_phase_name                         MOF
_cell_length_a                         13.38900
_cell_length_b                         16.50200
_cell_length_c                         13.45500
_cell_angle_alpha                      89.99600
_cell_angle_beta                       90.04000
_cell_angle_gamma                      90.12800
_symmetry_space_group_name_H-M         "P 1"
_symmetry_Int_Tables_number            1

loop_
_symmetry_equiv_pos_as_xyz
   "x, y, z"

loop_
   _atom_site_label
   _atom_site_occupancy
   _atom_site_fract_x
   _atom_site_fract_y
   _atom_site_fract_z
   _atom_site_adp_type
   _atom_site_B_iso_or_equiv
   _atom_site_type_symbol
    H   1.0     0.334600     0.048088     0.926392  Biso 1.000000     H
    H   1.0     0.837981     0.051994     0.928566  Biso 1.000000     H
    H   1.0     0.084458     0.555121     0.434113  Biso 1.000000     H
    H   1.0     0.587391     0.548097     0.426921  Biso 1.000000     H
    H   1.0     0.153439     0.447645     0.935176  Biso 1.000000     H
    H   1.0     0.657727     0.455329     0.927710  Biso 1.000000     H
    H   1.0     0.406692     0.951763     0.429414  Biso 1.000000     H
    H   1.0     0.903081     0.953980     0.429099  Biso 1.000000     H
    H   1.0     0.153404     0.568359     0.049671  Biso 1.000000     H
    H   1.0     0.654822     0.574532     0.044243  Biso 1.000000     H
    H   1.0     0.406720     0.072117     0.543335  Biso 1.000000     H
    H   1.0     0.900541     0.074312     0.543821  Biso 1.000000     H
    H   1.0     0.336981     0.927300     0.039668  Biso 1.000000     H
    H   1.0     0.837598     0.931753     0.043371  Biso 1.000000     H
    H   1.0     0.084478     0.435416     0.549769  Biso 1.000000     H
    H   1.0     0.589914     0.427582     0.541726  Biso 1.000000     H
    H   1.0     0.156217     0.949207     0.071212  Biso 1.000000     H
    H   1.0     0.653486     0.955364     0.077439  Biso 1.000000     H
    H   1.0     0.403722     0.450307     0.572508  Biso 1.000000     H
    H   1.0     0.907364     0.452805     0.573509  Biso 1.000000     H
    H   1.0     0.337338     0.549250     0.074562  Biso 1.000000     H
    H   1.0     0.834414     0.552853     0.072970  Biso 1.000000     H
    H   1.0     0.088193     0.054526     0.570843  Biso 1.000000     H
    H   1.0     0.584131     0.045563     0.580810  Biso 1.000000     H
    H   1.0     0.340202     0.429550     0.958344  Biso 1.000000     H
    H   1.0     0.834401     0.432344     0.958778  Biso 1.000000     H
    H   1.0     0.088092     0.933810     0.456981  Biso 1.000000     H
    H   1.0     0.586549     0.925687     0.466065  Biso 1.000000     H
    H   1.0     0.156596     0.069183     0.956358  Biso 1.000000     H
    H   1.0     0.650956     0.076503     0.964121  Biso 1.000000     H
    H   1.0     0.403571     0.570269     0.456720  Biso 1.000000     H
    H   1.0     0.904892     0.572743     0.458267  Biso 1.000000     H
    H   1.0     0.246002     0.225299     0.876434  Biso 1.000000     H
    H   1.0     0.746792     0.278367     0.876304  Biso 1.000000     H
    H   1.0     0.494917     0.226181     0.627142  Biso 1.000000     H
    H   1.0     0.995603     0.279245     0.628125  Biso 1.000000     H
    H   1.0     0.496210     0.775286     0.378125  Biso 1.000000     H
    H   1.0     0.996257     0.777026     0.378121  Biso 1.000000     H
    H   1.0     0.246214     0.772789     0.124585  Biso 1.000000     H
    H   1.0     0.745885     0.778692     0.126569  Biso 1.000000     H
    C   1.0     0.403928     0.027507     0.960227  Biso 1.000000     C
    C   1.0     0.907058     0.028815     0.960330  Biso 1.000000     C
    C   1.0     0.153706     0.531632     0.465120  Biso 1.000000     C
    C   1.0     0.656902     0.526533     0.459483  Biso 1.000000     C
    C   1.0     0.084186     0.471219     0.966006  Biso 1.000000     C
    C   1.0     0.588164     0.476088     0.960776  Biso 1.000000     C
    C   1.0     0.337428     0.974405     0.461225  Biso 1.000000     C
    C   1.0     0.833786     0.974405     0.463045  Biso 1.000000     C
    C   1.0     0.084147     0.537952     0.029137  Biso 1.000000     C
    C   1.0     0.586616     0.542131     0.024889  Biso 1.000000     C
    C   1.0     0.337375     0.041330     0.524105  Biso 1.000000     C
    C   1.0     0.832433     0.041095     0.526222  Biso 1.000000     C
    C   1.0     0.405331     0.960325     0.022708  Biso 1.000000     C
    C   1.0     0.906987     0.962233     0.023674  Biso 1.000000     C
    C   1.0     0.153858     0.465356     0.528896  Biso 1.000000     C
    C   1.0     0.658298     0.459907     0.522816  Biso 1.000000     C
    C   1.0     0.087113     0.971938     0.039081  Biso 1.000000     C
    C   1.0     0.584135     0.975980     0.043657  Biso 1.000000     C
    C   1.0     0.334441     0.473808     0.541554  Biso 1.000000     C
    C   1.0     0.837855     0.473822     0.540479  Biso 1.000000     C
    C   1.0     0.406857     0.527964     0.041864  Biso 1.000000     C
    C   1.0     0.903696     0.529313     0.042172  Biso 1.000000     C
    C   1.0     0.157376     0.031368     0.539370  Biso 1.000000     C
    C   1.0     0.653436     0.025220     0.546805  Biso 1.000000     C
    C   1.0     0.408445     0.461861     0.977829  Biso 1.000000     C
    C   1.0     0.903824     0.462532     0.979104  Biso 1.000000     C
    C   1.0     0.157461     0.964456     0.476485  Biso 1.000000     C
    C   1.0     0.654872     0.958588     0.483547  Biso 1.000000     C
    C   1.0     0.087247     0.038539     0.975774  Biso 1.000000     C
    C   1.0     0.582784     0.043208     0.981210  Biso 1.000000     C
    C   1.0     0.334346     0.540081     0.477741  Biso 1.000000     C
    C   1.0     0.836540     0.540346     0.477035  Biso 1.000000     C
    C   1.0     0.495435     0.933935     0.064941  Biso 1.000000     C
    C   1.0     0.996996     0.933230     0.063343  Biso 1.000000     C
    C   1.0     0.496873     0.861846     0.132456  Biso 1.000000     C
    C   1.0     0.997082     0.861736     0.131502  Biso 1.000000     C
    C   1.0     0.244152     0.435967     0.567473  Biso 1.000000     C
    C   1.0     0.748837     0.432969     0.563652  Biso 1.000000     C
    C   1.0     0.244693     0.364761     0.635874  Biso 1.000000     C
    C   1.0     0.750031     0.361335     0.631751  Biso 1.000000     C
    C   1.0     0.495940     0.568441     0.065762  Biso 1.000000     C
    C   1.0     0.993911     0.567516     0.067540  Biso 1.000000     C
    C   1.0     0.494447     0.639416     0.134553  Biso 1.000000     C
    C   1.0     0.993894     0.639290     0.135290  Biso 1.000000     C
    C   1.0     0.247411     0.070303     0.563772  Biso 1.000000     C
    C   1.0     0.742183     0.066993     0.568447  Biso 1.000000     C
    C   1.0     0.246824     0.142054     0.631861  Biso 1.000000     C
    C   1.0     0.741111     0.138664     0.636260  Biso 1.000000     C
    C   1.0     0.499151     0.435455     0.937008  Biso 1.000000     C
    C   1.0     0.994003     0.432977     0.940521  Biso 1.000000     C
    C   1.0     0.500370     0.364448     0.868369  Biso 1.000000     C
    C   1.0     0.994621     0.361401     0.872325  Biso 1.000000     C
    C   1.0     0.247474     0.935260     0.437051  Biso 1.000000     C
    C   1.0     0.745043     0.932618     0.441226  Biso 1.000000     C
    C   1.0     0.247638     0.863114     0.369663  Biso 1.000000     C
    C   1.0     0.746559     0.861155     0.372897  Biso 1.000000     C
    C   1.0     0.492596     0.069560     0.939098  Biso 1.000000     C
    C   1.0     0.997284     0.067372     0.935962  Biso 1.000000     C
    C   1.0     0.491404     0.141835     0.871825  Biso 1.000000     C
    C   1.0     0.996881     0.138793     0.867850  Biso 1.000000     C
    C   1.0     0.243976     0.569387     0.439198  Biso 1.000000     C
    C   1.0     0.746042     0.567139     0.436073  Biso 1.000000     C
    C   1.0     0.243813     0.640445     0.370459  Biso 1.000000     C
    C   1.0     0.744781     0.638639     0.367863  Biso 1.000000     C
    O   1.0     0.081297     0.170232     0.845926  Biso 1.000000     O
    O   1.0     0.575327     0.173466     0.850222  Biso 1.000000     O
    O   1.0     0.328325     0.670215     0.346769  Biso 1.000000     O
    O   1.0     0.828775     0.670351     0.345858  Biso 1.000000     O
    O   1.0     0.416474     0.333128     0.845940  Biso 1.000000     O
    O   1.0     0.910145     0.329867     0.850132  Biso 1.000000     O
    O   1.0     0.162861     0.833243     0.346096  Biso 1.000000     O
    O   1.0     0.662381     0.829789     0.350099  Biso 1.000000     O
    O   1.0     0.409565     0.662977     0.165682  Biso 1.000000     O
    O   1.0     0.909305     0.665581     0.163895  Biso 1.000000     O
    O   1.0     0.162087     0.166253     0.662217  Biso 1.000000     O
    O   1.0     0.655991     0.163212     0.666558  Biso 1.000000     O
    O   1.0     0.082134     0.835499     0.159454  Biso 1.000000     O
    O   1.0     0.582146     0.837723     0.162655  Biso 1.000000     O
    O   1.0     0.329284     0.340347     0.666498  Biso 1.000000     O
    O   1.0     0.835351     0.336920     0.662085  Biso 1.000000     O
    O   1.0     0.412761     0.829886     0.154261  Biso 1.000000     O
    O   1.0     0.912259     0.832519     0.155885  Biso 1.000000     O
    O   1.0     0.160288     0.333264     0.658057  Biso 1.000000     O
    O   1.0     0.666131     0.329840     0.653875  Biso 1.000000     O
    O   1.0     0.078424     0.669255     0.158750  Biso 1.000000     O
    O   1.0     0.578337     0.671417     0.156258  Biso 1.000000     O
    O   1.0     0.331317     0.173572     0.653828  Biso 1.000000     O
    O   1.0     0.825044     0.170109     0.658152  Biso 1.000000     O
    O   1.0     0.079345     0.337123     0.841945  Biso 1.000000     O
    O   1.0     0.585503     0.340049     0.837806  Biso 1.000000     O
    O   1.0     0.332652     0.836863     0.341498  Biso 1.000000     O
    O   1.0     0.831897     0.837035     0.343077  Biso 1.000000     O
    O   1.0     0.406074     0.166345     0.841766  Biso 1.000000     O
    O   1.0     0.912289     0.163156     0.837323  Biso 1.000000     O
    O   1.0     0.159127     0.666239     0.341326  Biso 1.000000     O
    O   1.0     0.659896     0.662945     0.337435  Biso 1.000000     O
    O   1.0     0.495721     0.253291     0.691195  Biso 1.000000     O
    O   1.0     0.995738     0.250208     0.690930  Biso 1.000000     O
    O   1.0     0.245866     0.750596     0.191378  Biso 1.000000     O
    O   1.0     0.745754     0.753124     0.191530  Biso 1.000000     O
    O   1.0     0.495898     0.750911     0.312481  Biso 1.000000     O
    O   1.0     0.995844     0.753147     0.312217  Biso 1.000000     O
    O   1.0     0.245827     0.253304     0.812948  Biso 1.000000     O
    O   1.0     0.745864     0.250122     0.812974  Biso 1.000000     O
   Al   1.0     0.120752     0.251914     0.752019  Biso 1.000000    Al
   Al   1.0     0.620789     0.251857     0.752079  Biso 1.000000    Al
   Al   1.0     0.370761     0.253703     0.752056  Biso 1.000000    Al
   Al   1.0     0.870774     0.250052     0.751884  Biso 1.000000    Al
   Al   1.0     0.370830     0.749672     0.252022  Biso 1.000000    Al
   Al   1.0     0.870678     0.751063     0.252137  Biso 1.000000    Al
   Al   1.0     0.120710     0.750573     0.251541  Biso 1.000000    Al
   Al   1.0     0.620753     0.750189     0.251737  Biso 1.000000    Al
