#======================================================================

# CRYSTAL DATA

#----------------------------------------------------------------------

data_VESTA_phase_1


_pd_phase_name                         MOF
_cell_length_a                         16.40100
_cell_length_b                         13.39400
_cell_length_c                         13.54300
_cell_angle_alpha                      90.12500
_cell_angle_beta                       90.00700
_cell_angle_gamma                      90.09700
_symmetry_space_group_name_H-M         "P 1"
_symmetry_Int_Tables_number            1

loop_
_symmetry_equiv_pos_as_xyz
   "x, y, z"

loop_
   _atom_site_label
   _atom_site_occupancy
   _atom_site_fract_x
   _atom_site_fract_y
   _atom_site_fract_z
   _atom_site_adp_type
   _atom_site_B_iso_or_equiv
   _atom_site_type_symbol
    H   1.0     0.174414     0.471515     0.794851  Biso 1.000000     H
    H   1.0     0.185159     0.959737     0.801502  Biso 1.000000     H
    H   1.0     0.294954     0.467189     0.679994  Biso 1.000000     H
    H   1.0     0.305888     0.962172     0.686889  Biso 1.000000     H
    H   1.0     0.308376     0.032393     0.309859  Biso 1.000000     H
    H   1.0     0.318472     0.535297     0.299689  Biso 1.000000     H
    H   1.0     0.186785     0.032291     0.196655  Biso 1.000000     H
    H   1.0     0.200188     0.538790     0.182018  Biso 1.000000     H
    H   1.0     0.807029     0.213010     0.193088  Biso 1.000000     H
    H   1.0     0.798414     0.717546     0.176312  Biso 1.000000     H
    H   1.0     0.686273     0.214567     0.307547  Biso 1.000000     H
    H   1.0     0.680567     0.715807     0.295513  Biso 1.000000     H
    H   1.0     0.690781     0.286450     0.688382  Biso 1.000000     H
    H   1.0     0.702629     0.781552     0.678568  Biso 1.000000     H
    H   1.0     0.810801     0.288766     0.804491  Biso 1.000000     H
    H   1.0     0.823587     0.777311     0.793370  Biso 1.000000     H
    H   1.0     0.809835     0.037146     0.198428  Biso 1.000000     H
    H   1.0     0.822583     0.532163     0.212760  Biso 1.000000     H
    H   1.0     0.691652     0.035049     0.316800  Biso 1.000000     H
    H   1.0     0.701688     0.533649     0.327376  Biso 1.000000     H
    H   1.0     0.674978     0.464503     0.708402  Biso 1.000000     H
    H   1.0     0.687425     0.966371     0.698429  Biso 1.000000     H
    H   1.0     0.795628     0.460271     0.823562  Biso 1.000000     H
    H   1.0     0.807621     0.968692     0.814355  Biso 1.000000     H
    H   1.0     0.186582     0.279836     0.810469  Biso 1.000000     H
    H   1.0     0.200956     0.788796     0.824060  Biso 1.000000     H
    H   1.0     0.307543     0.282396     0.696252  Biso 1.000000     H
    H   1.0     0.321269     0.784683     0.709113  Biso 1.000000     H
    H   1.0     0.307719     0.215360     0.305436  Biso 1.000000     H
    H   1.0     0.301232     0.712487     0.319691  Biso 1.000000     H
    H   1.0     0.189369     0.218604     0.187402  Biso 1.000000     H
    H   1.0     0.179763     0.712471     0.206801  Biso 1.000000     H
    H   1.0     0.467694     0.373845     0.624965  Biso 1.000000     H
    H   1.0     0.479676     0.873983     0.629292  Biso 1.000000     H
    H   1.0     0.473365     0.123548     0.376419  Biso 1.000000     H
    H   1.0     0.475545     0.623485     0.376316  Biso 1.000000     H
    H   1.0    -0.025954     0.127269     0.125958  Biso 1.000000     H
    H   1.0     0.022003     0.627892     0.126896  Biso 1.000000     H
    C   1.0     0.212919     0.029689     0.778284  Biso 1.000000     C
    C   1.0     0.207460     0.539364     0.775747  Biso 1.000000     C
    C   1.0     0.279675     0.031125     0.715084  Biso 1.000000     C
    C   1.0     0.274140     0.537100     0.712368  Biso 1.000000     C
    C   1.0     0.289721     0.466525     0.274577  Biso 1.000000     C
    C   1.0     0.279905     0.962822     0.286452  Biso 1.000000     C
    C   1.0     0.224051     0.468500     0.209802  Biso 1.000000     C
    C   1.0     0.212526     0.962873     0.224158  Biso 1.000000     C
    C   1.0     0.783747     0.282707     0.223316  Biso 1.000000     C
    C   1.0     0.774755     0.786457     0.207931  Biso 1.000000     C
    C   1.0     0.716806     0.283491     0.286353  Biso 1.000000     C
    C   1.0     0.709577     0.785487     0.273577  Biso 1.000000     C
    C   1.0     0.716746     0.217565     0.716907  Biso 1.000000     C
    C   1.0     0.723594     0.711864     0.711012  Biso 1.000000     C
    C   1.0     0.782932     0.218846     0.781027  Biso 1.000000     C
    C   1.0     0.790283     0.709558     0.774319  Biso 1.000000     C
    C   1.0     0.792266     0.463172     0.234227  Biso 1.000000     C
    C   1.0     0.781198     0.967338     0.220370  Biso 1.000000     C
    C   1.0     0.725390     0.464027     0.297364  Biso 1.000000     C
    C   1.0     0.715862     0.966296     0.285592  Biso 1.000000     C
    C   1.0     0.714949     0.036353     0.722416  Biso 1.000000     C
    C   1.0     0.708054     0.532289     0.727796  Biso 1.000000     C
    C   1.0     0.781217     0.037612     0.786475  Biso 1.000000     C
    C   1.0     0.774659     0.529953     0.791216  Biso 1.000000     C
    C   1.0     0.213671     0.210947     0.783176  Biso 1.000000     C
    C   1.0     0.222281     0.718964     0.792073  Biso 1.000000     C
    C   1.0     0.280511     0.212217     0.720112  Biso 1.000000     C
    C   1.0     0.288881     0.716563     0.728627  Biso 1.000000     C
    C   1.0     0.283738     0.285621     0.277697  Biso 1.000000     C
    C   1.0     0.275917     0.782058     0.291981  Biso 1.000000     C
    C   1.0     0.218151     0.287334     0.212719  Biso 1.000000     C
    C   1.0     0.208429     0.782082     0.229772  Biso 1.000000     C
    C   1.0     0.179871     0.119582     0.813098  Biso 1.000000     C
    C   1.0     0.181174     0.630391     0.816065  Biso 1.000000     C
    C   1.0     0.314322     0.122336     0.686125  Biso 1.000000     C
    C   1.0     0.315475     0.625640     0.688411  Biso 1.000000     C
    C   1.0     0.109309     0.118626     0.882501  Biso 1.000000     C
    C   1.0     0.109629     0.632592     0.884267  Biso 1.000000     C
    C   1.0     0.386850     0.123442     0.619414  Biso 1.000000     C
    C   1.0     0.387140     0.623313     0.620203  Biso 1.000000     C
    C   1.0     0.320067     0.375136     0.308960  Biso 1.000000     C
    C   1.0     0.312536     0.872420     0.320395  Biso 1.000000     C
    C   1.0     0.187865     0.378900     0.178567  Biso 1.000000     C
    C   1.0     0.176423     0.872432     0.194981  Biso 1.000000     C
    C   1.0     0.390660     0.373557     0.378875  Biso 1.000000     C
    C   1.0     0.385958     0.872428     0.386024  Biso 1.000000     C
    C   1.0     0.117230     0.380797     0.109068  Biso 1.000000     C
    C   1.0     0.105080     0.873286     0.126039  Biso 1.000000     C
    C   1.0     0.821888     0.372492     0.196551  Biso 1.000000     C
    C   1.0     0.810981     0.877494     0.181150  Biso 1.000000     C
    C   1.0     0.687002     0.374215     0.323569  Biso 1.000000     C
    C   1.0     0.679761     0.875382     0.312577  Biso 1.000000     C
    C   1.0     0.892816     0.372286     0.127087  Biso 1.000000     C
    C   1.0     0.880968     0.879013     0.110863  Biso 1.000000     C
    C   1.0     0.614265     0.375114     0.390133  Biso 1.000000     C
    C   1.0     0.609469     0.874957     0.382726  Biso 1.000000     C
    C   1.0     0.682269     0.126332     0.687381  Biso 1.000000     C
    C   1.0     0.682063     0.623267     0.687545  Biso 1.000000     C
    C   1.0     0.815475     0.128934     0.816278  Biso 1.000000     C
    C   1.0     0.816065     0.618548     0.814835  Biso 1.000000     C
    C   1.0     0.611111     0.125259     0.618615  Biso 1.000000     C
    C   1.0     0.610471     0.625516     0.619593  Biso 1.000000     C
    C   1.0     0.886575     0.130244     0.885044  Biso 1.000000     C
    C   1.0     0.887041     0.616704     0.883501  Biso 1.000000     C
    O   1.0     0.083702     0.033543     0.912065  Biso 1.000000     O
    O   1.0     0.076174     0.549535     0.904599  Biso 1.000000     O
    O   1.0     0.416138     0.038837     0.594522  Biso 1.000000     O
    O   1.0     0.409884     0.537905     0.588708  Biso 1.000000     O
    O   1.0     0.420402     0.457950     0.403836  Biso 1.000000     O
    O   1.0     0.416134     0.957261     0.408990  Biso 1.000000     O
    O   1.0     0.089383     0.466082     0.084737  Biso 1.000000     O
    O   1.0     0.082135     0.958176     0.094932  Biso 1.000000     O
    O   1.0     0.920375     0.287295     0.099821  Biso 1.000000     O
    O   1.0     0.903290     0.795382     0.075131  Biso 1.000000     O
    O   1.0     0.583105     0.290894     0.412186  Biso 1.000000     O
    O   1.0     0.580384     0.790431     0.407102  Biso 1.000000     O
    O   1.0     0.582818     0.209476     0.591917  Biso 1.000000     O
    O   1.0     0.587869     0.710435     0.587687  Biso 1.000000     O
    O   1.0     0.912913     0.215914     0.912811  Biso 1.000000     O
    O   1.0     0.920535     0.699800     0.904002  Biso 1.000000     O
    O   1.0     0.920361     0.456918     0.100600  Biso 1.000000     O
    O   1.0     0.913204     0.963526     0.092039  Biso 1.000000     O
    O   1.0     0.588286     0.459881     0.418847  Biso 1.000000     O
    O   1.0     0.583732     0.959552     0.411954  Biso 1.000000     O
    O   1.0     0.583520     0.040332     0.592342  Biso 1.000000     O
    O   1.0     0.576827     0.542154     0.599206  Biso 1.000000     O
    O   1.0     0.915971     0.046447     0.910611  Biso 1.000000     O
    O   1.0     0.909281     0.531737     0.917078  Biso 1.000000     O
    O   1.0     0.079867     0.202589     0.907419  Biso 1.000000     O
    O   1.0     0.087308     0.718083     0.916918  Biso 1.000000     O
    O   1.0     0.414147     0.208648     0.593203  Biso 1.000000     O
    O   1.0     0.420254     0.706966     0.599173  Biso 1.000000     O
    O   1.0     0.415571     0.288266     0.407478  Biso 1.000000     O
    O   1.0     0.413033     0.787492     0.413029  Biso 1.000000     O
    O   1.0     0.090279     0.296651     0.079920  Biso 1.000000     O
    O   1.0     0.072858     0.789156     0.103881  Biso 1.000000     O
    O   1.0     0.002596     0.126061     0.063112  Biso 1.000000     O
    O   1.0    -0.004751     0.626221     0.062941  Biso 1.000000     O
    O   1.0     0.496267     0.374192     0.562184  Biso 1.000000     O
    O   1.0     0.499652     0.874112     0.561860  Biso 1.000000     O
    O   1.0     0.000000     0.375341     0.945883  Biso 1.000000     O
    O   1.0     0.989953     0.874999     0.945828  Biso 1.000000     O
    O   1.0     0.498115     0.123994     0.441511  Biso 1.000000     O
    O   1.0     0.499371     0.623918     0.441904  Biso 1.000000     O
   Al   1.0     0.999525     0.001266     0.001419  Biso 1.000000    Al
   Al   1.0     0.997461     0.501659     0.001080  Biso 1.000000    Al
   Al   1.0     0.499474     0.499303     0.502657  Biso 1.000000    Al
   Al   1.0     0.500145     0.999202     0.502121  Biso 1.000000    Al
   Al   1.0     0.999251     0.249071    -0.000495  Biso 1.000000    Al
   Al   1.0     0.997449     0.749083    -0.000543  Biso 1.000000    Al
   Al   1.0     0.499340     0.249149     0.501679  Biso 1.000000    Al
   Al   1.0     0.500557     0.748892     0.502076  Biso 1.000000    Al
