#======================================================================

# CRYSTAL DATA

#----------------------------------------------------------------------

data_VESTA_phase_1


_pd_phase_name                         MOF
_cell_length_a                         16.75100
_cell_length_b                         13.40600
_cell_length_c                         13.11600
_cell_angle_alpha                      89.92300
_cell_angle_beta                       90.00900
_cell_angle_gamma                      89.88900
_symmetry_space_group_name_H-M         "P 1"
_symmetry_Int_Tables_number            1

loop_
_symmetry_equiv_pos_as_xyz
   "x, y, z"

loop_
   _atom_site_label
   _atom_site_occupancy
   _atom_site_fract_x
   _atom_site_fract_y
   _atom_site_fract_z
   _atom_site_adp_type
   _atom_site_B_iso_or_equiv
   _atom_site_type_symbol
    H   1.0     0.189672     0.213741     0.695517  Biso 1.000000     H
    H   1.0     0.189877     0.713755     0.695260  Biso 1.000000     H
    H   1.0     0.692158     0.464104     0.191380  Biso 1.000000     H
    H   1.0     0.691925     0.964110     0.191721  Biso 1.000000     H
    H   1.0     0.807871     0.034684     0.690299  Biso 1.000000     H
    H   1.0     0.807800     0.534681     0.690225  Biso 1.000000     H
    H   1.0     0.310741     0.284169     0.195394  Biso 1.000000     H
    H   1.0     0.310375     0.784217     0.194861  Biso 1.000000     H
    H   1.0     0.813524     0.464852     0.305032  Biso 1.000000     H
    H   1.0     0.813296     0.964807     0.305365  Biso 1.000000     H
    H   1.0     0.311163     0.214324     0.807886  Biso 1.000000     H
    H   1.0     0.311373     0.714369     0.807624  Biso 1.000000     H
    H   1.0     0.188854     0.283855     0.306931  Biso 1.000000     H
    H   1.0     0.188494     0.783838     0.306404  Biso 1.000000     H
    H   1.0     0.686831     0.034242     0.804512  Biso 1.000000     H
    H   1.0     0.686777     0.534264     0.804467  Biso 1.000000     H
    H   1.0     0.809895     0.284696     0.307938  Biso 1.000000     H
    H   1.0     0.809417     0.784716     0.308685  Biso 1.000000     H
    H   1.0     0.308756     0.034256     0.809158  Biso 1.000000     H
    H   1.0     0.308683     0.534211     0.809278  Biso 1.000000     H
    H   1.0     0.191129     0.463957     0.309477  Biso 1.000000     H
    H   1.0     0.191028     0.963964     0.309379  Biso 1.000000     H
    H   1.0     0.689881     0.214387     0.808218  Biso 1.000000     H
    H   1.0     0.690126     0.714369     0.808523  Biso 1.000000     H
    H   1.0     0.187072     0.033627     0.697084  Biso 1.000000     H
    H   1.0     0.186998     0.533614     0.697200  Biso 1.000000     H
    H   1.0     0.688741     0.283995     0.193968  Biso 1.000000     H
    H   1.0     0.688269     0.783966     0.194705  Biso 1.000000     H
    H   1.0     0.811109     0.214801     0.694294  Biso 1.000000     H
    H   1.0     0.811369     0.714808     0.694628  Biso 1.000000     H
    H   1.0     0.312774     0.464328     0.197573  Biso 1.000000     H
    H   1.0     0.312675     0.964270     0.197483  Biso 1.000000     H
    H   1.0     0.021961     0.123990     0.631802  Biso 1.000000     H
    H   1.0     0.022030     0.623967     0.631776  Biso 1.000000     H
    H   1.0     0.023255     0.374252     0.371380  Biso 1.000000     H
    H   1.0     0.022879     0.874248     0.371196  Biso 1.000000     H
    H   1.0     0.478759     0.374253     0.131543  Biso 1.000000     H
    H   1.0     0.478184     0.874265     0.131264  Biso 1.000000     H
    H   1.0     0.476729     0.124559     0.870964  Biso 1.000000     H
    H   1.0     0.477045     0.624577     0.870806  Biso 1.000000     H
    C   1.0     0.216143     0.283402     0.721149  Biso 1.000000     C
    C   1.0     0.216317     0.783422     0.720928  Biso 1.000000     C
    C   1.0     0.718413     0.033661     0.217732  Biso 1.000000     C
    C   1.0     0.718491     0.533660     0.217623  Biso 1.000000     C
    C   1.0     0.781369     0.465225     0.716740  Biso 1.000000     C
    C   1.0     0.781474     0.965221     0.716859  Biso 1.000000     C
    C   1.0     0.284088     0.214527     0.220971  Biso 1.000000     C
    C   1.0     0.283831     0.714562     0.220584  Biso 1.000000     C
    C   1.0     0.785406     0.034048     0.280349  Biso 1.000000     C
    C   1.0     0.785481     0.534075     0.280244  Biso 1.000000     C
    C   1.0     0.283546     0.283730     0.782957  Biso 1.000000     C
    C   1.0     0.283722     0.783766     0.782732  Biso 1.000000     C
    C   1.0     0.216443     0.214349     0.282420  Biso 1.000000     C
    C   1.0     0.216188     0.714349     0.282037  Biso 1.000000     C
    C   1.0     0.714586     0.464993     0.779617  Biso 1.000000     C
    C   1.0     0.714683     0.964976     0.779721  Biso 1.000000     C
    C   1.0     0.783508     0.215153     0.281766  Biso 1.000000     C
    C   1.0     0.783190     0.715166     0.282270  Biso 1.000000     C
    C   1.0     0.282137     0.464547     0.783778  Biso 1.000000     C
    C   1.0     0.282238     0.964582     0.783633  Biso 1.000000     C
    C   1.0     0.217655     0.033604     0.283757  Biso 1.000000     C
    C   1.0     0.217657     0.533608     0.283726  Biso 1.000000     C
    C   1.0     0.716348     0.283844     0.781748  Biso 1.000000     C
    C   1.0     0.716550     0.783830     0.781998  Biso 1.000000     C
    C   1.0     0.214658     0.464217     0.722082  Biso 1.000000     C
    C   1.0     0.214757     0.964236     0.721940  Biso 1.000000     C
    C   1.0     0.716614     0.214766     0.219030  Biso 1.000000     C
    C   1.0     0.716299     0.714753     0.219527  Biso 1.000000     C
    C   1.0     0.783221     0.284077     0.718996  Biso 1.000000     C
    C   1.0     0.783433     0.784077     0.719261  Biso 1.000000     C
    C   1.0     0.285193     0.033778     0.222170  Biso 1.000000     C
    C   1.0     0.285194     0.533817     0.222135  Biso 1.000000     C
    C   1.0     0.683562     0.124024     0.186830  Biso 1.000000     C
    C   1.0     0.683461     0.624003     0.186991  Biso 1.000000     C
    C   1.0     0.611795     0.123843     0.119300  Biso 1.000000     C
    C   1.0     0.611746     0.623806     0.119368  Biso 1.000000     C
    C   1.0     0.181087     0.373649     0.690369  Biso 1.000000     C
    C   1.0     0.181209     0.873659     0.690212  Biso 1.000000     C
    C   1.0     0.108903     0.373295     0.623314  Biso 1.000000     C
    C   1.0     0.108980     0.873287     0.623235  Biso 1.000000     C
    C   1.0     0.319110     0.124242     0.190432  Biso 1.000000     C
    C   1.0     0.318998     0.624298     0.190251  Biso 1.000000     C
    C   1.0     0.391469     0.124315     0.123529  Biso 1.000000     C
    C   1.0     0.391409     0.624396     0.123443  Biso 1.000000     C
    C   1.0     0.816188     0.374778     0.686330  Biso 1.000000     C
    C   1.0     0.816339     0.874782     0.686509  Biso 1.000000     C
    C   1.0     0.888002     0.375120     0.619007  Biso 1.000000     C
    C   1.0     0.888115     0.875132     0.619117  Biso 1.000000     C
    C   1.0     0.317196     0.374302     0.814550  Biso 1.000000     C
    C   1.0     0.317324     0.874346     0.814384  Biso 1.000000     C
    C   1.0     0.389659     0.374525     0.881144  Biso 1.000000     C
    C   1.0     0.389752     0.874580     0.881041  Biso 1.000000     C
    C   1.0     0.818379     0.124802     0.312668  Biso 1.000000     C
    C   1.0     0.818273     0.624836     0.312841  Biso 1.000000     C
    C   1.0     0.889870     0.125286     0.380666  Biso 1.000000     C
    C   1.0     0.889821     0.625336     0.380743  Biso 1.000000     C
    C   1.0     0.681691     0.374303     0.812418  Biso 1.000000     C
    C   1.0     0.681824     0.874281     0.812567  Biso 1.000000     C
    C   1.0     0.610436     0.374145     0.880686  Biso 1.000000     C
    C   1.0     0.610527     0.874118     0.880763  Biso 1.000000     C
    C   1.0     0.182582     0.123886     0.314230  Biso 1.000000     C
    C   1.0     0.182474     0.623869     0.314055  Biso 1.000000     C
    C   1.0     0.110077     0.123525     0.380877  Biso 1.000000     C
    C   1.0     0.110028     0.623488     0.380808  Biso 1.000000     C
    O   1.0     0.082619     0.288305     0.595565  Biso 1.000000     O
    O   1.0     0.082689     0.788289     0.595517  Biso 1.000000     O
    O   1.0     0.583860     0.039327     0.093275  Biso 1.000000     O
    O   1.0     0.583840     0.539283     0.093301  Biso 1.000000     O
    O   1.0     0.914559     0.459799     0.591035  Biso 1.000000     O
    O   1.0     0.914640     0.959812     0.591099  Biso 1.000000     O
    O   1.0     0.419421     0.209095     0.097715  Biso 1.000000     O
    O   1.0     0.419366     0.709185     0.097651  Biso 1.000000     O
    O   1.0     0.919702     0.041037     0.404776  Biso 1.000000     O
    O   1.0     0.919697     0.541092     0.404779  Biso 1.000000     O
    O   1.0     0.418004     0.289677     0.906601  Biso 1.000000     O
    O   1.0     0.418105     0.789743     0.906508  Biso 1.000000     O
    O   1.0     0.080336     0.208098     0.404437  Biso 1.000000     O
    O   1.0     0.080304     0.708058     0.404404  Biso 1.000000     O
    O   1.0     0.582379     0.458680     0.906891  Biso 1.000000     O
    O   1.0     0.582450     0.958651     0.906937  Biso 1.000000     O
    O   1.0     0.916070     0.209929     0.409052  Biso 1.000000     O
    O   1.0     0.916033     0.709983     0.409107  Biso 1.000000     O
    O   1.0     0.417427     0.459397     0.906758  Biso 1.000000     O
    O   1.0     0.417472     0.959461     0.906719  Biso 1.000000     O
    O   1.0     0.083663     0.038496     0.408547  Biso 1.000000     O
    O   1.0     0.083656     0.538456     0.408541  Biso 1.000000     O
    O   1.0     0.582760     0.289566     0.907131  Biso 1.000000     O
    O   1.0     0.582825     0.789538     0.907172  Biso 1.000000     O
    O   1.0     0.079364     0.457969     0.599508  Biso 1.000000     O
    O   1.0     0.079402     0.957953     0.599480  Biso 1.000000     O
    O   1.0     0.583496     0.208407     0.093356  Biso 1.000000     O
    O   1.0     0.583473     0.708369     0.093382  Biso 1.000000     O
    O   1.0     0.917725     0.290764     0.595285  Biso 1.000000     O
    O   1.0     0.917827     0.790779     0.595365  Biso 1.000000     O
    O   1.0     0.419572     0.039500     0.097775  Biso 1.000000     O
    O   1.0     0.419564     0.539592     0.097760  Biso 1.000000     O
    O   1.0     0.000503     0.374383     0.439421  Biso 1.000000     O
    O   1.0     0.000512     0.874380     0.439442  Biso 1.000000     O
    O   1.0     0.499553     0.124378     0.938968  Biso 1.000000     O
    O   1.0     0.499543     0.624383     0.938985  Biso 1.000000     O
    O   1.0    -0.000035     0.124274     0.563358  Biso 1.000000     O
    O   1.0    -0.000036     0.624265     0.563368  Biso 1.000000     O
    O   1.0     0.500085     0.374282     0.062760  Biso 1.000000     O
    O   1.0     0.500097     0.874284     0.062779  Biso 1.000000     O
   Al   1.0    -0.001362     0.249299     0.501293  Biso 1.000000    Al
   Al   1.0    -0.001334     0.749295     0.501299  Biso 1.000000    Al
   Al   1.0     0.501371     0.499324     0.000965  Biso 1.000000    Al
   Al   1.0     0.501409     0.999320     0.000960  Biso 1.000000    Al
   Al   1.0    -0.001278     0.499360     0.501182  Biso 1.000000    Al
   Al   1.0    -0.001250     0.999361     0.501182  Biso 1.000000    Al
   Al   1.0     0.501443     0.249269     0.001023  Biso 1.000000    Al
   Al   1.0     0.501465     0.749283     0.001013  Biso 1.000000    Al
