#======================================================================

# CRYSTAL DATA

#----------------------------------------------------------------------

data_VESTA_phase_1


_pd_phase_name                         MOF
_cell_length_a                         12.34200
_cell_length_b                         13.20600
_cell_length_c                         14.43600
_cell_angle_alpha                      74.53000
_cell_angle_beta                       65.42000
_cell_angle_gamma                      68.23600
_symmetry_space_group_name_H-M         "P 1"
_symmetry_Int_Tables_number            1

loop_
_symmetry_equiv_pos_as_xyz
   "x, y, z"

loop_
   _atom_site_label
   _atom_site_occupancy
   _atom_site_fract_x
   _atom_site_fract_y
   _atom_site_fract_z
   _atom_site_adp_type
   _atom_site_B_iso_or_equiv
   _atom_site_type_symbol
    H   1.0     0.460033     0.813319     0.308125  Biso 1.000000     H
    H   1.0     0.392730     0.637911     0.449581  Biso 1.000000     H
    H   1.0     0.075149     0.950465     0.219681  Biso 1.000000     H
    H   1.0     0.891336     0.955500     0.187397  Biso 1.000000     H
    H   1.0     0.814055     0.786841     0.251732  Biso 1.000000     H
    H   1.0     0.925650     0.625263     0.346258  Biso 1.000000     H
    H   1.0     0.412690     0.895478     0.143239  Biso 1.000000     H
    H   1.0     0.272269     0.898447     0.136868  Biso 1.000000     H
    H   1.0     0.298341     0.044364     0.256717  Biso 1.000000     H
    H   1.0     0.154984     0.048220     0.256256  Biso 1.000000     H
    H   1.0     0.375769     0.088250     0.061675  Biso 1.000000     H
    H   1.0     0.228093     0.099194     0.063345  Biso 1.000000     H
    H   1.0     0.269873     0.245564     0.172954  Biso 1.000000     H
    H   1.0     0.130447     0.262931     0.158179  Biso 1.000000     H
    H   1.0     0.448813     0.284667     0.034236  Biso 1.000000     H
    H   1.0     0.491919     0.394385     0.833387  Biso 1.000000     H
    H   1.0     0.015297     0.288256     0.101268  Biso 1.000000     H
    H   1.0     0.807321     0.347797     0.091515  Biso 1.000000     H
    H   1.0     0.774950     0.458082     0.927030  Biso 1.000000     H
    H   1.0     0.957031     0.503982     0.782452  Biso 1.000000     H
    H   1.0     0.753498     0.854647     0.520449  Biso 1.000000     H
    H   1.0     0.821171     0.019414     0.463708  Biso 1.000000     H
    H   1.0     0.113941     0.853186     0.591019  Biso 1.000000     H
    H   1.0     0.363489     0.150400     0.591408  Biso 1.000000     H
    H   1.0     0.678186     0.986847     0.347051  Biso 1.000000     H
    H   1.0     0.722634     0.163808     0.268787  Biso 1.000000     H
    H   1.0     0.539972     0.186656     0.691867  Biso 1.000000     H
    H   1.0     0.607275     0.362065     0.550412  Biso 1.000000     H
    H   1.0     0.924856     0.049508     0.780311  Biso 1.000000     H
    H   1.0     0.108670     0.044472     0.812595  Biso 1.000000     H
    H   1.0     0.185952     0.213130     0.748260  Biso 1.000000     H
    H   1.0     0.074358     0.374708     0.653734  Biso 1.000000     H
    H   1.0     0.587315     0.104495     0.856752  Biso 1.000000     H
    H   1.0     0.727737     0.101525     0.863123  Biso 1.000000     H
    H   1.0     0.701664     0.955609     0.743274  Biso 1.000000     H
    H   1.0     0.845021     0.951754     0.743734  Biso 1.000000     H
    H   1.0     0.624237     0.911724     0.938316  Biso 1.000000     H
    H   1.0     0.771914     0.900779     0.936645  Biso 1.000000     H
    H   1.0     0.730130     0.754410     0.827038  Biso 1.000000     H
    H   1.0     0.869558     0.737042     0.841811  Biso 1.000000     H
    H   1.0     0.551191     0.715307     0.965757  Biso 1.000000     H
    H   1.0     0.508087     0.605590     0.166606  Biso 1.000000     H
    H   1.0     0.984706     0.711721     0.898723  Biso 1.000000     H
    H   1.0     0.192684     0.652180     0.908473  Biso 1.000000     H
    H   1.0     0.225058     0.541893     0.072956  Biso 1.000000     H
    H   1.0     0.042979     0.495991     0.217536  Biso 1.000000     H
    H   1.0     0.246514     0.145321     0.479543  Biso 1.000000     H
    H   1.0     0.178841     0.980554     0.536280  Biso 1.000000     H
    H   1.0     0.886067     0.146787     0.408975  Biso 1.000000     H
    H   1.0     0.636522     0.849574     0.408584  Biso 1.000000     H
    H   1.0     0.321812     0.013130     0.652932  Biso 1.000000     H
    H   1.0     0.277367     0.836167     0.731198  Biso 1.000000     H
    C   1.0     0.382939     0.781863     0.326380  Biso 1.000000     C
    C   1.0     0.350844     0.693606     0.394793  Biso 1.000000     C
    C   1.0     0.215146     0.766103     0.316158  Biso 1.000000     C
    C   1.0     0.105840     0.780584     0.292309  Biso 1.000000     C
    C   1.0     0.044638     0.877334     0.242266  Biso 1.000000     C
    C   1.0     0.939583     0.880620     0.226075  Biso 1.000000     C
    C   1.0     0.895853     0.789026     0.261718  Biso 1.000000     C
    C   1.0     0.958942     0.697266     0.314051  Biso 1.000000     C
    C   1.0     0.311831     0.912293     0.186302  Biso 1.000000     C
    C   1.0     0.254931     0.031446     0.209602  Biso 1.000000     C
    C   1.0     0.275365     0.110116     0.108617  Biso 1.000000     C
    C   1.0     0.231857     0.231799     0.122266  Biso 1.000000     C
    C   1.0     0.393230     0.311991     0.985625  Biso 1.000000     C
    C   1.0     0.413386     0.365576     0.886986  Biso 1.000000     C
    C   1.0     0.226965     0.344897     0.944851  Biso 1.000000     C
    C   1.0     0.100839     0.364836     0.946203  Biso 1.000000     C
    C   1.0     0.003554     0.333489     0.029703  Biso 1.000000     C
    C   1.0     0.884705     0.366808     0.024359  Biso 1.000000     C
    C   1.0     0.866129     0.428717     0.934699  Biso 1.000000     C
    C   1.0     0.967500     0.455269     0.853816  Biso 1.000000     C
    C   1.0     0.068720     0.663457     0.658102  Biso 1.000000     C
    C   1.0     0.996950     0.761602     0.604938  Biso 1.000000     C
    C   1.0     0.896818     0.758198     0.584221  Biso 1.000000     C
    C   1.0     0.833868     0.853937     0.534689  Biso 1.000000     C
    C   1.0     0.873139     0.947862     0.502565  Biso 1.000000     C
    C   1.0     0.976996     0.950929     0.518880  Biso 1.000000     C
    C   1.0     0.034940     0.856572     0.573430  Biso 1.000000     C
    C   1.0     0.858210     0.654184     0.614185  Biso 1.000000     C
    C   1.0     0.375348     0.350920     0.526752  Biso 1.000000     C
    C   1.0     0.467518     0.250957     0.475747  Biso 1.000000     C
    C   1.0     0.443139     0.150156     0.520110  Biso 1.000000     C
    C   1.0     0.515218     0.052519     0.476046  Biso 1.000000     C
    C   1.0     0.617285     0.059800     0.384278  Biso 1.000000     C
    C   1.0     0.643180     0.159334     0.339745  Biso 1.000000     C
    C   1.0     0.569652     0.256568     0.383699  Biso 1.000000     C
    C   1.0     0.611946     0.357786     0.331932  Biso 1.000000     C
    C   1.0     0.617066     0.218112     0.673612  Biso 1.000000     C
    C   1.0     0.649162     0.306369     0.605200  Biso 1.000000     C
    C   1.0     0.784860     0.233871     0.683834  Biso 1.000000     C
    C   1.0     0.894166     0.219389     0.707682  Biso 1.000000     C
    C   1.0     0.955368     0.122638     0.757725  Biso 1.000000     C
    C   1.0     0.060423     0.119352     0.773916  Biso 1.000000     C
    C   1.0     0.104154     0.210946     0.738274  Biso 1.000000     C
    C   1.0     0.041065     0.302705     0.685940  Biso 1.000000     C
    C   1.0     0.688175     0.087680     0.813689  Biso 1.000000     C
    C   1.0     0.745074     0.968528     0.790388  Biso 1.000000     C
    C   1.0     0.724641     0.889858     0.891374  Biso 1.000000     C
    C   1.0     0.768148     0.768174     0.877725  Biso 1.000000     C
    C   1.0     0.606775     0.687982     0.014368  Biso 1.000000     C
    C   1.0     0.586619     0.634398     0.113007  Biso 1.000000     C
    C   1.0     0.773041     0.655077     0.055140  Biso 1.000000     C
    C   1.0     0.899167     0.635138     0.053787  Biso 1.000000     C
    C   1.0     0.996451     0.666487     0.970287  Biso 1.000000     C
    C   1.0     0.115301     0.633168     0.975630  Biso 1.000000     C
    C   1.0     0.133878     0.571259     0.065288  Biso 1.000000     C
    C   1.0     0.032508     0.544705     0.146172  Biso 1.000000     C
    C   1.0     0.931293     0.336515     0.341891  Biso 1.000000     C
    C   1.0     0.003059     0.238368     0.395056  Biso 1.000000     C
    C   1.0     0.103190     0.241773     0.415774  Biso 1.000000     C
    C   1.0     0.166142     0.146033     0.465303  Biso 1.000000     C
    C   1.0     0.126874     0.052107     0.497424  Biso 1.000000     C
    C   1.0     0.023014     0.049041     0.481112  Biso 1.000000     C
    C   1.0     0.965068     0.143399     0.426565  Biso 1.000000     C
    C   1.0     0.141800     0.345788     0.385807  Biso 1.000000     C
    C   1.0     0.624662     0.649054     0.473239  Biso 1.000000     C
    C   1.0     0.532490     0.749017     0.524242  Biso 1.000000     C
    C   1.0     0.556870     0.849818     0.479880  Biso 1.000000     C
    C   1.0     0.484787     0.947456     0.523943  Biso 1.000000     C
    C   1.0     0.382717     0.940175     0.615708  Biso 1.000000     C
    C   1.0     0.356822     0.840640     0.660241  Biso 1.000000     C
    C   1.0     0.430355     0.743406     0.616290  Biso 1.000000     C
    C   1.0     0.388062     0.642188     0.668057  Biso 1.000000     C
    N   1.0     0.061595     0.692085     0.328020  Biso 1.000000     N
    N   1.0     0.247613     0.685004     0.387201  Biso 1.000000     N
    N   1.0     0.297568     0.827555     0.276481  Biso 1.000000     N
    N   1.0     0.081625     0.424710     0.858693  Biso 1.000000     N
    N   1.0     0.310872     0.384628     0.862764  Biso 1.000000     N
    N   1.0     0.275562     0.298773     0.022564  Biso 1.000000     N
    N   1.0     0.938412     0.307888     0.671972  Biso 1.000000     N
    N   1.0     0.752393     0.314970     0.612792  Biso 1.000000     N
    N   1.0     0.702438     0.172419     0.723511  Biso 1.000000     N
    N   1.0     0.918383     0.575264     0.141297  Biso 1.000000     N
    N   1.0     0.689134     0.615346     0.137228  Biso 1.000000     N
    N   1.0     0.724443     0.701201     0.977428  Biso 1.000000     N
    O   1.0     0.092563     0.675265     0.730564  Biso 1.000000     O
    O   1.0     0.105706     0.569532     0.626009  Biso 1.000000     O
    O   1.0     0.907617     0.595609     0.538755  Biso 1.000000     O
    O   1.0     0.787400     0.631547     0.702216  Biso 1.000000     O
    O   1.0     0.341937     0.338622     0.624972  Biso 1.000000     O
    O   1.0     0.336658     0.434615     0.469143  Biso 1.000000     O
    O   1.0     0.616485     0.413043     0.390912  Biso 1.000000     O
    O   1.0     0.648698     0.377605     0.235623  Biso 1.000000     O
    O   1.0     0.907453     0.324706     0.269427  Biso 1.000000     O
    O   1.0     0.894308     0.430441     0.373983  Biso 1.000000     O
    O   1.0     0.092399     0.404358     0.461240  Biso 1.000000     O
    O   1.0     0.212610     0.368424     0.297776  Biso 1.000000     O
    O   1.0     0.658075     0.661350     0.375019  Biso 1.000000     O
    O   1.0     0.663353     0.565359     0.530848  Biso 1.000000     O
    O   1.0     0.383525     0.586930     0.609076  Biso 1.000000     O
    O   1.0     0.351311     0.622367     0.764366  Biso 1.000000     O
   Cd   1.0     0.147123     0.550937     0.454668  Biso 1.000000    Cd
   Cd   1.0     0.257715     0.483656     0.718607  Biso 1.000000    Cd
   Cd   1.0     0.852887     0.449035     0.545324  Biso 1.000000    Cd
   Cd   1.0     0.742296     0.516317     0.281383  Biso 1.000000    Cd
