#======================================================================

# CRYSTAL DATA

#----------------------------------------------------------------------

data_VESTA_phase_1


_pd_phase_name                         MOF
_cell_length_a                         10.87800
_cell_length_b                         18.06600
_cell_length_c                         18.06700
_cell_angle_alpha                      89.81400
_cell_angle_beta                       90.21200
_cell_angle_gamma                      89.57300
_symmetry_space_group_name_H-M         "P 1"
_symmetry_Int_Tables_number            1

loop_
_symmetry_equiv_pos_as_xyz
   "x, y, z"

loop_
   _atom_site_label
   _atom_site_occupancy
   _atom_site_fract_x
   _atom_site_fract_y
   _atom_site_fract_z
   _atom_site_adp_type
   _atom_site_B_iso_or_equiv
   _atom_site_type_symbol
    H   1.0     0.855150     0.572772     0.393047  Biso 1.000000     H
    H   1.0     0.839061     0.578870     0.255116  Biso 1.000000     H
    H   1.0     0.938565     0.680943     0.186554  Biso 1.000000     H
    H   1.0     0.069571     0.771560     0.392156  Biso 1.000000     H
    H   1.0     0.355884     0.429556     0.607763  Biso 1.000000     H
    H   1.0     0.339604     0.424150     0.745604  Biso 1.000000     H
    H   1.0     0.439539     0.321640     0.815148  Biso 1.000000     H
    H   1.0     0.572288     0.229607     0.610633  Biso 1.000000     H
    H   1.0     0.102261     0.110750     0.073142  Biso 1.000000     H
    H   1.0     0.087371     0.248733     0.078252  Biso 1.000000     H
    H   1.0     0.188518     0.316829     0.180131  Biso 1.000000     H
    H   1.0     0.319132     0.110626     0.272462  Biso 1.000000     H
    H   1.0     0.603118     0.893166     0.930099  Biso 1.000000     H
    H   1.0     0.585885     0.755441     0.923688  Biso 1.000000     H
    H   1.0     0.686996     0.686651     0.822033  Biso 1.000000     H
    H   1.0     0.822001     0.891666     0.732607  Biso 1.000000     H
    H   1.0     0.391279     0.928456     0.892653  Biso 1.000000     H
    H   1.0     0.408548     0.921286     0.754922  Biso 1.000000     H
    H   1.0     0.308401     0.819163     0.686981  Biso 1.000000     H
    H   1.0     0.174644     0.730510     0.892782  Biso 1.000000     H
    H   1.0     0.897435     0.069424     0.110232  Biso 1.000000     H
    H   1.0     0.911450     0.074026     0.248182  Biso 1.000000     H
    H   1.0     0.810197     0.176048     0.316659  Biso 1.000000     H
    H   1.0     0.680500     0.269233     0.110816  Biso 1.000000     H
    H   1.0     0.144992     0.393103     0.574476  Biso 1.000000     H
    H   1.0     0.161607     0.255129     0.579477  Biso 1.000000     H
    H   1.0     0.060713     0.185799     0.680705  Biso 1.000000     H
    H   1.0     0.927730     0.390785     0.772629  Biso 1.000000     H
    H   1.0     0.644147     0.606480     0.429564  Biso 1.000000     H
    H   1.0     0.657731     0.744466     0.425506  Biso 1.000000     H
    H   1.0     0.556244     0.814551     0.324033  Biso 1.000000     H
    H   1.0     0.428231     0.610282     0.229947  Biso 1.000000     H
    C   1.0     0.968967     0.671077     0.483511  Biso 1.000000     C
    C   1.0     0.087305     0.789407     0.245281  Biso 1.000000     C
    C   1.0     0.960607     0.672875     0.401059  Biso 1.000000     C
    C   1.0     0.897677     0.617636     0.362230  Biso 1.000000     C
    C   1.0     0.889873     0.620967     0.285239  Biso 1.000000     C
    C   1.0     0.947439     0.677822     0.246504  Biso 1.000000     C
    C   1.0     0.014602     0.731756     0.284793  Biso 1.000000     C
    C   1.0     0.018829     0.729527     0.362116  Biso 1.000000     C
    C   1.0     0.471209     0.330537     0.518354  Biso 1.000000     C
    C   1.0     0.589122     0.211846     0.757587  Biso 1.000000     C
    C   1.0     0.462403     0.328860     0.600738  Biso 1.000000     C
    C   1.0     0.398759     0.384573     0.638995  Biso 1.000000     C
    C   1.0     0.390788     0.381584     0.715953  Biso 1.000000     C
    C   1.0     0.448553     0.324471     0.755232  Biso 1.000000     C
    C   1.0     0.516176     0.269927     0.717525  Biso 1.000000     C
    C   1.0     0.520873     0.271963     0.640223  Biso 1.000000     C
    C   1.0     0.216734     0.000000     0.172315  Biso 1.000000     C
    C   1.0     0.338423     0.257443     0.289175  Biso 1.000000     C
    C   1.0     0.208737     0.102216     0.173631  Biso 1.000000     C
    C   1.0     0.145476     0.141330     0.117952  Biso 1.000000     C
    C   1.0     0.138323     0.218364     0.120735  Biso 1.000000     C
    C   1.0     0.196829     0.256835     0.177463  Biso 1.000000     C
    C   1.0     0.264355     0.218233     0.231836  Biso 1.000000     C
    C   1.0     0.267978     0.140890     0.230147  Biso 1.000000     C
    C   1.0     0.720846    -0.016782     0.833191  Biso 1.000000     C
    C   1.0     0.837715     0.744917     0.714138  Biso 1.000000     C
    C   1.0     0.711080     0.900913     0.830741  Biso 1.000000     C
    C   1.0     0.646361     0.862261     0.885444  Biso 1.000000     C
    C   1.0     0.637891     0.785373     0.881927  Biso 1.000000     C
    C   1.0     0.696240     0.746509     0.825303  Biso 1.000000     C
    C   1.0     0.764678     0.784606     0.771731  Biso 1.000000     C
    C   1.0     0.769898     0.861852     0.774254  Biso 1.000000     C
    C   1.0     0.275561     0.831342    -0.016423  Biso 1.000000     C
    C   1.0     0.157906     0.711796     0.745876  Biso 1.000000     C
    C   1.0     0.284652     0.828850     0.901199  Biso 1.000000     C
    C   1.0     0.348538     0.883546     0.862106  Biso 1.000000     C
    C   1.0     0.357015     0.879612     0.785229  Biso 1.000000     C
    C   1.0     0.299118     0.822734     0.746823  Biso 1.000000     C
    C   1.0     0.231019     0.769318     0.785309  Biso 1.000000     C
    C   1.0     0.226140     0.772122     0.862570  Biso 1.000000     C
    C   1.0     0.783147     0.169084     0.000000  Biso 1.000000     C
    C   1.0     0.661290     0.285990     0.257532  Biso 1.000000     C
    C   1.0     0.790827     0.170152     0.102038  Biso 1.000000     C
    C   1.0     0.853925     0.114210     0.140950  Biso 1.000000     C
    C   1.0     0.860645     0.116734     0.217990  Biso 1.000000     C
    C   1.0     0.802122     0.173547     0.256663  Biso 1.000000     C
    C   1.0     0.734941     0.228245     0.218237  Biso 1.000000     C
    C   1.0     0.731525     0.226712     0.140910  Biso 1.000000     C
    C   1.0     0.028808     0.482869     0.672578  Biso 1.000000     C
    C   1.0     0.911016     0.243718     0.789295  Biso 1.000000     C
    C   1.0     0.038039     0.400426     0.674288  Biso 1.000000     C
    C   1.0     0.102036     0.361959     0.618987  Biso 1.000000     C
    C   1.0     0.110142     0.284938     0.621706  Biso 1.000000     C
    C   1.0     0.051960     0.245801     0.678076  Biso 1.000000     C
    C   1.0     0.984073     0.283750     0.732180  Biso 1.000000     C
    C   1.0     0.979343     0.361094     0.730529  Biso 1.000000     C
    C   1.0     0.530577     0.517458     0.329702  Biso 1.000000     C
    C   1.0     0.407708     0.757330     0.214066  Biso 1.000000     C
    C   1.0     0.538064     0.599922     0.328920  Biso 1.000000     C
    C   1.0     0.600743     0.637937     0.384957  Biso 1.000000     C
    C   1.0     0.607138     0.714976     0.382767  Biso 1.000000     C
    C   1.0     0.548461     0.754562     0.326246  Biso 1.000000     C
    C   1.0     0.481582     0.717067     0.271488  Biso 1.000000     C
    C   1.0     0.478776     0.639713     0.272591  Biso 1.000000     C
    N   1.0     0.294091     0.852777     0.493762  Biso 1.000000     N
    N   1.0     0.798700     0.147022     0.509945  Biso 1.000000     N
    N   1.0     0.544908     0.000000     0.355883  Biso 1.000000     N
    N   1.0     0.048392    -0.008101     0.650255  Biso 1.000000     N
    N   1.0     0.950686     0.647372    -0.006372  Biso 1.000000     N
    N   1.0     0.451299     0.352710     0.000000  Biso 1.000000     N
    N   1.0     0.701334     0.491231     0.854748  Biso 1.000000     N
    N   1.0     0.201173     0.509169     0.148291  Biso 1.000000     N
    O   1.0     0.916664     0.619099     0.518744  Biso 1.000000     O
    O   1.0     0.030975     0.721633     0.516114  Biso 1.000000     O
    O   1.0     0.108242     0.779585     0.175467  Biso 1.000000     O
    O   1.0     0.129279     0.843797     0.280965  Biso 1.000000     O
    O   1.0     0.292959     0.824715     0.557653  Biso 1.000000     O
    O   1.0     0.192385     0.878472     0.465471  Biso 1.000000     O
    O   1.0     0.391613     0.856188     0.456128  Biso 1.000000     O
    O   1.0     0.416651     0.381832     0.482564  Biso 1.000000     O
    O   1.0     0.536089     0.280477     0.486233  Biso 1.000000     O
    O   1.0     0.610513     0.221929     0.827390  Biso 1.000000     O
    O   1.0     0.630844     0.156882     0.722285  Biso 1.000000     O
    O   1.0     0.797035     0.174680     0.445891  Biso 1.000000     O
    O   1.0     0.697352     0.121745     0.537934  Biso 1.000000     O
    O   1.0     0.896178     0.143667     0.548126  Biso 1.000000     O
    O   1.0     0.161723     0.984566     0.121301  Biso 1.000000     O
    O   1.0     0.281459     0.986975     0.222285  Biso 1.000000     O
    O   1.0     0.360180     0.327074     0.278551  Biso 1.000000     O
    O   1.0     0.380828     0.221789     0.344023  Biso 1.000000     O
    O   1.0     0.542205     0.944005     0.328235  Biso 1.000000     O
    O   1.0     0.444027     0.037263     0.380966  Biso 1.000000     O
    O   1.0     0.643353     0.000000     0.359406  Biso 1.000000     O
    O   1.0     0.666712     0.018593     0.884404  Biso 1.000000     O
    O   1.0     0.786261     0.015714     0.783907  Biso 1.000000     O
    O   1.0     0.858890     0.674961     0.724218  Biso 1.000000     O
    O   1.0     0.879615     0.780560     0.659562  Biso 1.000000     O
    O   1.0     0.047399     0.055713     0.678035  Biso 1.000000     O
    O   1.0     0.946409     0.964524     0.624822  Biso 1.000000     O
    O   1.0     0.145565    -0.046658     0.646789  Biso 1.000000     O
    O   1.0     0.327681     0.883466     0.018568  Biso 1.000000     O
    O   1.0     0.213039     0.781093     0.016362  Biso 1.000000     O
    O   1.0     0.136628     0.721930     0.675957  Biso 1.000000     O
    O   1.0     0.115913     0.657333     0.781560  Biso 1.000000     O
    O   1.0     0.952295     0.675450     0.057326  Biso 1.000000     O
    O   1.0     0.052285     0.621950     0.965537  Biso 1.000000     O
    O   1.0     0.852804     0.643754    -0.044048  Biso 1.000000     O
    O   1.0     0.838507     0.118202     0.984218  Biso 1.000000     O
    O   1.0     0.718199     0.219180     0.986961  Biso 1.000000     O
    O   1.0     0.640097     0.275851     0.327325  Biso 1.000000     O
    O   1.0     0.618894     0.340824     0.221807  Biso 1.000000     O
    O   1.0     0.452954     0.325051     0.945158  Biso 1.000000     O
    O   1.0     0.552615     0.377955     0.037390  Biso 1.000000     O
    O   1.0     0.353763     0.356181     0.000000  Biso 1.000000     O
    O   1.0     0.083318     0.518319     0.621613  Biso 1.000000     O
    O   1.0     0.963580     0.515381     0.722026  Biso 1.000000     O
    O   1.0     0.890135     0.174100     0.778594  Biso 1.000000     O
    O   1.0     0.868718     0.278644     0.844226  Biso 1.000000     O
    O   1.0     0.702637     0.555648     0.827872  Biso 1.000000     O
    O   1.0     0.802467     0.462620     0.880943  Biso 1.000000     O
    O   1.0     0.604143     0.453324     0.856392  Biso 1.000000     O
    O   1.0     0.583583     0.481488     0.381491  Biso 1.000000     O
    O   1.0     0.468322     0.485617     0.278632  Biso 1.000000     O
    O   1.0     0.386076     0.827126     0.224348  Biso 1.000000     O
    O   1.0     0.365467     0.722197     0.159292  Biso 1.000000     O
    O   1.0     0.203433     0.444743     0.175107  Biso 1.000000     O
    O   1.0     0.301785     0.537307     0.122182  Biso 1.000000     O
    O   1.0     0.103547     0.547511     0.146579  Biso 1.000000     O
   Sr   1.0     0.061103     0.829405     0.592675  Biso 1.000000    Sr
   Sr   1.0     0.563527     0.170843     0.411275  Biso 1.000000    Sr
   Sr   1.0     0.310155     0.910279     0.330886  Biso 1.000000    Sr
   Sr   1.0     0.814003     0.090421     0.673358  Biso 1.000000    Sr
   Sr   1.0     0.184480     0.672394     0.092565  Biso 1.000000    Sr
   Sr   1.0     0.685821     0.328075     0.910792  Biso 1.000000    Sr
   Sr   1.0     0.934511     0.590719     0.831009  Biso 1.000000    Sr
   Sr   1.0     0.436436     0.408975     0.171486  Biso 1.000000    Sr
   Cd   1.0    -0.002500     0.633323     0.634570  Biso 1.000000    Cd
   Cd   1.0     0.501354     0.366603     0.367728  Biso 1.000000    Cd
   Cd   1.0     0.246377     0.869013     0.134225  Biso 1.000000    Cd
   Cd   1.0     0.752734     0.132990     0.869115  Biso 1.000000    Cd
