#======================================================================

# CRYSTAL DATA

#----------------------------------------------------------------------

data_VESTA_phase_1


_pd_phase_name                         MOF
_cell_length_a                         13.94100
_cell_length_b                         20.67700
_cell_length_c                         22.21400
_cell_angle_alpha                      89.99500
_cell_angle_beta                       90.51100
_cell_angle_gamma                      101.28400
_symmetry_space_group_name_H-M         "P 1"
_symmetry_Int_Tables_number            1

loop_
_symmetry_equiv_pos_as_xyz
   "x, y, z"

loop_
   _atom_site_label
   _atom_site_occupancy
   _atom_site_fract_x
   _atom_site_fract_y
   _atom_site_fract_z
   _atom_site_adp_type
   _atom_site_B_iso_or_equiv
   _atom_site_type_symbol
    H   1.0     0.001368     0.282537     0.063893  Biso 1.000000     H
    H   1.0     0.636763     0.699924     0.663531  Biso 1.000000     H
    H   1.0     0.988001     0.615128     0.805346  Biso 1.000000     H
    H   1.0     0.513991     0.313692     0.080984  Biso 1.000000     H
    H   1.0     0.176712     0.271357     0.060898  Biso 1.000000     H
    H   1.0     0.965998     0.529134     0.884174  Biso 1.000000     H
    H   1.0     0.586164     0.659391     0.404497  Biso 1.000000     H
    H   1.0     0.564212     0.569666     0.327225  Biso 1.000000     H
    H   1.0     0.946988     0.764530     0.640741  Biso 1.000000     H
    H   1.0     0.601112     0.422097     0.159856  Biso 1.000000     H
    H   1.0     0.896282     0.532427     0.146164  Biso 1.000000     H
    H   1.0     0.340768     0.323107     0.094239  Biso 1.000000     H
    H   1.0     0.981672     0.694410     0.724916  Biso 1.000000     H
    H   1.0     0.878402     0.734411     0.343806  Biso 1.000000     H
    H   1.0     0.568778     0.491203     0.245347  Biso 1.000000     H
    H   1.0     0.652866     0.502297     0.867845  Biso 1.000000     H
    H   1.0     0.057550     0.454079     0.962798  Biso 1.000000     H
    H   1.0     0.338781     0.385192     0.907921  Biso 1.000000     H
    H   1.0     0.513927     0.374038     0.903075  Biso 1.000000     H
    H   1.0     0.234374     0.450229     0.955503  Biso 1.000000     H
    H   1.0    -0.001884     0.781011     0.438875  Biso 1.000000     H
    H   1.0     0.636534     0.198866     0.836462  Biso 1.000000     H
    H   1.0     0.988263     0.118466     0.695848  Biso 1.000000     H
    H   1.0     0.511412     0.813816     0.418323  Biso 1.000000     H
    H   1.0     0.173772     0.770068     0.440740  Biso 1.000000     H
    H   1.0     0.967184     0.031791     0.617289  Biso 1.000000     H
    H   1.0     0.587933     0.159652     0.094131  Biso 1.000000     H
    H   1.0     0.565295     0.070084     0.171346  Biso 1.000000     H
    H   1.0     0.946612     0.267007     0.860213  Biso 1.000000     H
    H   1.0     0.600490     0.922385     0.339062  Biso 1.000000     H
    H   1.0     0.895979     0.032131     0.356614  Biso 1.000000     H
    H   1.0     0.337483     0.822768     0.405342  Biso 1.000000     H
    H   1.0     0.981411     0.197699     0.775911  Biso 1.000000     H
    H   1.0     0.880153     0.234223     0.158363  Biso 1.000000     H
    H   1.0     0.568945     0.991728     0.253234  Biso 1.000000     H
    H   1.0     0.654013     0.001110     0.632487  Biso 1.000000     H
    H   1.0     0.059524     0.955319     0.536442  Biso 1.000000     H
    H   1.0     0.341667     0.886209     0.591441  Biso 1.000000     H
    H   1.0     0.517041     0.875097     0.596170  Biso 1.000000     H
    H   1.0     0.236769     0.951770     0.542490  Biso 1.000000     H
    H   1.0     0.000000     0.219014     0.561106  Biso 1.000000     H
    H   1.0     0.363490     0.801149     0.163532  Biso 1.000000     H
    H   1.0     0.011765     0.881557     0.304143  Biso 1.000000     H
    H   1.0     0.488623     0.186212     0.581669  Biso 1.000000     H
    H   1.0     0.826265     0.229965     0.559237  Biso 1.000000     H
    H   1.0     0.032848     0.968230     0.382704  Biso 1.000000     H
    H   1.0     0.412100     0.840380     0.905876  Biso 1.000000     H
    H   1.0     0.434729     0.929954     0.828667  Biso 1.000000     H
    H   1.0     0.053411     0.733018     0.139777  Biso 1.000000     H
    H   1.0     0.399535     0.077646     0.660945  Biso 1.000000     H
    H   1.0     0.104059     0.967882     0.643380  Biso 1.000000     H
    H   1.0     0.662554     0.177264     0.594646  Biso 1.000000     H
    H   1.0     0.018615     0.802326     0.224080  Biso 1.000000     H
    H   1.0     0.119900     0.765783     0.841623  Biso 1.000000     H
    H   1.0     0.431080     0.008309     0.746776  Biso 1.000000     H
    H   1.0     0.346018     0.998903     0.367510  Biso 1.000000     H
    H   1.0     0.940495     0.044691     0.463562  Biso 1.000000     H
    H   1.0     0.658358     0.113808     0.408551  Biso 1.000000     H
    H   1.0     0.482981     0.124917     0.403826  Biso 1.000000     H
    H   1.0     0.763252     0.048246     0.457511  Biso 1.000000     H
    H   1.0     0.998685     0.717488     0.936126  Biso 1.000000     H
    H   1.0     0.363301     0.300076     0.336487  Biso 1.000000     H
    H   1.0     0.012116     0.384911     0.194677  Biso 1.000000     H
    H   1.0     0.486061     0.686344     0.919012  Biso 1.000000     H
    H   1.0     0.823342     0.728673     0.939118  Biso 1.000000     H
    H   1.0     0.034107     0.470901     0.115842  Biso 1.000000     H
    H   1.0     0.413873     0.340609     0.595511  Biso 1.000000     H
    H   1.0     0.435832     0.430331     0.672786  Biso 1.000000     H
    H   1.0     0.053065     0.235515     0.359259  Biso 1.000000     H
    H   1.0     0.398930     0.577906     0.840154  Biso 1.000000     H
    H   1.0     0.103747     0.467592     0.853827  Biso 1.000000     H
    H   1.0     0.659285     0.676924     0.905760  Biso 1.000000     H
    H   1.0     0.018420     0.305655     0.275087  Biso 1.000000     H
    H   1.0     0.121621     0.265609     0.656188  Biso 1.000000     H
    H   1.0     0.431271     0.508797     0.754665  Biso 1.000000     H
    H   1.0     0.347241     0.497744     0.132165  Biso 1.000000     H
    H   1.0     0.942480     0.545930     0.037199  Biso 1.000000     H
    H   1.0     0.661249     0.614818     0.092073  Biso 1.000000     H
    H   1.0     0.486103     0.625974     0.096914  Biso 1.000000     H
    H   1.0     0.765656     0.549783     0.044488  Biso 1.000000     H
    C   1.0     0.796852     0.456064     0.926615  Biso 1.000000     C
    C   1.0     0.324043     0.354316     0.001619  Biso 1.000000     C
    C   1.0     0.832135     0.607964     0.790964  Biso 1.000000     C
    C   1.0     0.738968     0.575670     0.809873  Biso 1.000000     C
    C   1.0     0.828143     0.655074     0.741956  Biso 1.000000     C
    C   1.0     0.220370     0.359680     0.006732  Biso 1.000000     C
    C   1.0     0.732968     0.701835     0.378818  Biso 1.000000     C
    C   1.0     0.056143     0.318431     0.040594  Biso 1.000000     C
    C   1.0     0.709720     0.601689     0.291264  Biso 1.000000     C
    C   1.0     0.732036     0.658136     0.723879  Biso 1.000000     C
    C   1.0     0.711314     0.697908     0.677236  Biso 1.000000     C
    C   1.0     0.790517     0.735891     0.646562  Biso 1.000000     C
    C   1.0     0.914478     0.591127     0.818472  Biso 1.000000     C
    C   1.0     0.745196     0.755626     0.425359  Biso 1.000000     C
    C   1.0     0.797051     0.648699     0.297069  Biso 1.000000     C
    C   1.0     0.471880     0.328623     0.043758  Biso 1.000000     C
    C   1.0     0.804334     0.564163     0.213627  Biso 1.000000     C
    C   1.0     0.153651     0.312888     0.038815  Biso 1.000000     C
    C   1.0     0.902107     0.542445     0.862750  Biso 1.000000     C
    C   1.0     0.766434     0.430747     0.094896  Biso 1.000000     C
    C   1.0     0.645003     0.655487     0.373611  Biso 1.000000     C
    C   1.0     0.632827     0.605442     0.330390  Biso 1.000000     C
    C   1.0     0.808497     0.510054     0.880418  Biso 1.000000     C
    C   1.0     0.750086     0.472674     0.147641  Biso 1.000000     C
    C   1.0     0.713496     0.553720     0.242911  Biso 1.000000     C
    C   1.0     0.886743     0.733996     0.664438  Biso 1.000000     C
    C   1.0     0.658439     0.462125     0.175819  Biso 1.000000     C
    C   1.0     0.824902     0.524212     0.167439  Biso 1.000000     C
    C   1.0     0.374617     0.333405     0.050417  Biso 1.000000     C
    C   1.0     0.906103     0.694369     0.711999  Biso 1.000000     C
    C   1.0     0.810427     0.698333     0.339778  Biso 1.000000     C
    C   1.0     0.640049     0.501416     0.223767  Biso 1.000000     C
    C   1.0     0.773710     0.778273     0.594101  Biso 1.000000     C
    C   1.0     0.725258     0.527437     0.853882  Biso 1.000000     C
    C   1.0     0.086701     0.414091     0.983297  Biso 1.000000     C
    C   1.0     0.374882     0.369537     0.947519  Biso 1.000000     C
    C   1.0     0.471947     0.362997     0.944232  Biso 1.000000     C
    C   1.0     0.185132     0.411424     0.979164  Biso 1.000000     C
    C   1.0     0.798647     0.956434     0.574573  Biso 1.000000     C
    C   1.0     0.323931     0.854587     0.497888  Biso 1.000000     C
    C   1.0     0.832349     0.109282     0.709638  Biso 1.000000     C
    C   1.0     0.739383     0.075752     0.690518  Biso 1.000000     C
    C   1.0     0.828058     0.156425     0.758515  Biso 1.000000     C
    C   1.0     0.220053     0.859827     0.493079  Biso 1.000000     C
    C   1.0     0.734732     0.201848     0.121575  Biso 1.000000     C
    C   1.0     0.054125     0.817514     0.461155  Biso 1.000000     C
    C   1.0     0.710693     0.101928     0.209093  Biso 1.000000     C
    C   1.0     0.731927     0.158351     0.776284  Biso 1.000000     C
    C   1.0     0.711103     0.197753     0.822966  Biso 1.000000     C
    C   1.0     0.790217     0.236578     0.853957  Biso 1.000000     C
    C   1.0     0.914944     0.093470     0.682469  Biso 1.000000     C
    C   1.0     0.746851     0.255528     0.075059  Biso 1.000000     C
    C   1.0     0.798239     0.148768     0.204341  Biso 1.000000     C
    C   1.0     0.470451     0.828822     0.455604  Biso 1.000000     C
    C   1.0     0.804466     0.064264     0.288122  Biso 1.000000     C
    C   1.0     0.151772     0.812143     0.462261  Biso 1.000000     C
    C   1.0     0.903132     0.044427     0.638407  Biso 1.000000     C
    C   1.0     0.765414     0.930657     0.406220  Biso 1.000000     C
    C   1.0     0.646607     0.155651     0.125763  Biso 1.000000     C
    C   1.0     0.634034     0.105730     0.168955  Biso 1.000000     C
    C   1.0     0.809750     0.010791     0.620517  Biso 1.000000     C
    C   1.0     0.749556     0.972679     0.353258  Biso 1.000000     C
    C   1.0     0.713891     0.053957     0.257561  Biso 1.000000     C
    C   1.0     0.886426     0.235875     0.836283  Biso 1.000000     C
    C   1.0     0.658093     0.962299     0.323846  Biso 1.000000     C
    C   1.0     0.824694     0.024080     0.334445  Biso 1.000000     C
    C   1.0     0.372913     0.833461     0.449052  Biso 1.000000     C
    C   1.0     0.905872     0.196643     0.788669  Biso 1.000000     C
    C   1.0     0.812037     0.198266     0.161602  Biso 1.000000     C
    C   1.0     0.640135     0.001754     0.275711  Biso 1.000000     C
    C   1.0     0.773386     0.278438     0.906629  Biso 1.000000     C
    C   1.0     0.726214     0.027188     0.646664  Biso 1.000000     C
    C   1.0     0.087590     0.914769     0.516473  Biso 1.000000     C
    C   1.0     0.376550     0.870311     0.551867  Biso 1.000000     C
    C   1.0     0.473694     0.863783     0.555089  Biso 1.000000     C
    C   1.0     0.186256     0.912313     0.519913  Biso 1.000000     C
    C   1.0     0.201387     0.043580     0.425424  Biso 1.000000     C
    C   1.0     0.676100     0.145438     0.502103  Biso 1.000000     C
    C   1.0     0.167680     0.890736     0.290357  Biso 1.000000     C
    C   1.0     0.260647     0.924264     0.309477  Biso 1.000000     C
    C   1.0     0.171969     0.843594     0.241479  Biso 1.000000     C
    C   1.0     0.779977     0.140197     0.506911  Biso 1.000000     C
    C   1.0     0.265312     0.798169     0.878421  Biso 1.000000     C
    C   1.0     0.945907     0.182510     0.538830  Biso 1.000000     C
    C   1.0     0.289343     0.898097     0.790909  Biso 1.000000     C
    C   1.0     0.268100     0.841666     0.223710  Biso 1.000000     C
    C   1.0     0.288922     0.802263     0.177028  Biso 1.000000     C
    C   1.0     0.209806     0.763443     0.146036  Biso 1.000000     C
    C   1.0     0.085085     0.906551     0.317523  Biso 1.000000     C
    C   1.0     0.253197     0.744486     0.924933  Biso 1.000000     C
    C   1.0     0.201803     0.851248     0.795654  Biso 1.000000     C
    C   1.0     0.529581     0.171204     0.544388  Biso 1.000000     C
    C   1.0     0.195571     0.935757     0.711877  Biso 1.000000     C
    C   1.0     0.848262     0.187884     0.537722  Biso 1.000000     C
    C   1.0     0.096898     0.955592     0.361587  Biso 1.000000     C
    C   1.0     0.234619     0.069360     0.593778  Biso 1.000000     C
    C   1.0     0.353429     0.844375     0.874241  Biso 1.000000     C
    C   1.0     0.365997     0.894301     0.831052  Biso 1.000000     C
    C   1.0     0.190281     0.989226     0.379478  Biso 1.000000     C
    C   1.0     0.250475     0.027343     0.646743  Biso 1.000000     C
    C   1.0     0.286142     0.946070     0.742443  Biso 1.000000     C
    C   1.0     0.113598     0.764147     0.163709  Biso 1.000000     C
    C   1.0     0.341934     0.037730     0.676160  Biso 1.000000     C
    C   1.0     0.175341     0.975938     0.665553  Biso 1.000000     C
    C   1.0     0.627121     0.166567     0.550938  Biso 1.000000     C
    C   1.0     0.094154     0.803380     0.211323  Biso 1.000000     C
    C   1.0     0.188010     0.801746     0.838389  Biso 1.000000     C
    C   1.0     0.359893     0.998277     0.724297  Biso 1.000000     C
    C   1.0     0.226640     0.721581     0.093365  Biso 1.000000     C
    C   1.0     0.273817     0.972827     0.353333  Biso 1.000000     C
    C   1.0     0.912434     0.085246     0.483525  Biso 1.000000     C
    C   1.0     0.623477     0.129709     0.448125  Biso 1.000000     C
    C   1.0     0.526332     0.136235     0.444905  Biso 1.000000     C
    C   1.0     0.813769     0.087705     0.480084  Biso 1.000000     C
    C   1.0     0.203229     0.543969     0.073395  Biso 1.000000     C
    C   1.0     0.675999     0.645706     0.998378  Biso 1.000000     C
    C   1.0     0.167982     0.392084     0.209056  Biso 1.000000     C
    C   1.0     0.261152     0.424376     0.190148  Biso 1.000000     C
    C   1.0     0.171960     0.344970     0.258060  Biso 1.000000     C
    C   1.0     0.779672     0.640340     0.993270  Biso 1.000000     C
    C   1.0     0.267061     0.298175     0.621183  Biso 1.000000     C
    C   1.0     0.943905     0.681592     0.959419  Biso 1.000000     C
    C   1.0     0.290316     0.398320     0.708739  Biso 1.000000     C
    C   1.0     0.268060     0.341894     0.276138  Biso 1.000000     C
    C   1.0     0.288758     0.302110     0.322778  Biso 1.000000     C
    C   1.0     0.209539     0.264136     0.353446  Biso 1.000000     C
    C   1.0     0.085635     0.408915     0.181550  Biso 1.000000     C
    C   1.0     0.254828     0.244387     0.574639  Biso 1.000000     C
    C   1.0     0.202980     0.351315     0.702930  Biso 1.000000     C
    C   1.0     0.528168     0.671407     0.956237  Biso 1.000000     C
    C   1.0     0.195700     0.435853     0.786369  Biso 1.000000     C
    C   1.0     0.846398     0.687138     0.961196  Biso 1.000000     C
    C   1.0     0.097999     0.457592     0.137268  Biso 1.000000     C
    C   1.0     0.233596     0.569266     0.905102  Biso 1.000000     C
    C   1.0     0.355032     0.344517     0.626394  Biso 1.000000     C
    C   1.0     0.367212     0.394560     0.669616  Biso 1.000000     C
    C   1.0     0.191606     0.489986     0.119600  Biso 1.000000     C
    C   1.0     0.249948     0.527338     0.852359  Biso 1.000000     C
    C   1.0     0.286543     0.446290     0.757091  Biso 1.000000     C
    C   1.0     0.113320     0.266045     0.335567  Biso 1.000000     C
    C   1.0     0.341601     0.537882     0.824186  Biso 1.000000     C
    C   1.0     0.175129     0.475804     0.832556  Biso 1.000000     C
    C   1.0     0.625430     0.666622     0.949581  Biso 1.000000     C
    C   1.0     0.093983     0.305683     0.288009  Biso 1.000000     C
    C   1.0     0.189599     0.301683     0.660219  Biso 1.000000     C
    C   1.0     0.359995     0.498589     0.776240  Biso 1.000000     C
    C   1.0     0.226329     0.221744     0.405901  Biso 1.000000     C
    C   1.0     0.274851     0.472605     0.146134  Biso 1.000000     C
    C   1.0     0.913334     0.585923     0.016705  Biso 1.000000     C
    C   1.0     0.625153     0.630479     0.052475  Biso 1.000000     C
    C   1.0     0.528088     0.637021     0.055760  Biso 1.000000     C
    C   1.0     0.814903     0.588592     0.020835  Biso 1.000000     C
    N   1.0     0.022723     0.368020     0.013098  Biso 1.000000     N
    N   1.0     0.519976     0.342787     0.991480  Biso 1.000000     N
    N   1.0     0.022116     0.867784     0.488060  Biso 1.000000     N
    N   1.0     0.520196     0.843343     0.507817  Biso 1.000000     N
    N   1.0     0.977912     0.132233     0.511932  Biso 1.000000     N
    N   1.0     0.479833     0.156677     0.492178  Biso 1.000000     N
    N   1.0     0.977317     0.631997     0.986910  Biso 1.000000     N
    N   1.0     0.480065     0.657237     0.008513  Biso 1.000000     N
    O   1.0     0.670439     0.760953     0.455880  Biso 1.000000     O
    O   1.0     0.854463     0.433444     0.078043  Biso 1.000000     O
    O   1.0     0.709905     0.428853     0.940520  Biso 1.000000     O
    O   1.0     0.830096     0.791967     0.429954  Biso 1.000000     O
    O   1.0     0.875137     0.441729     0.948039  Biso 1.000000     O
    O   1.0     0.690419     0.396852     0.070364  Biso 1.000000     O
    O   1.0     0.687527     0.788938     0.585787  Biso 1.000000     O
    O   1.0     0.847899     0.799982     0.561847  Biso 1.000000     O
    O   1.0     0.970892     0.619483     0.270796  Biso 1.000000     O
    O   1.0     0.591495     0.641206     0.807131  Biso 1.000000     O
    O   1.0     0.589430     0.550748     0.731634  Biso 1.000000     O
    O   1.0     0.895546     0.688199     0.197487  Biso 1.000000     O
    O   1.0     0.671683     0.261085     0.044180  Biso 1.000000     O
    O   1.0     0.853293     0.933485     0.424437  Biso 1.000000     O
    O   1.0     0.711819     0.929165     0.559488  Biso 1.000000     O
    O   1.0     0.831950     0.291590     0.070937  Biso 1.000000     O
    O   1.0     0.877072     0.941930     0.554431  Biso 1.000000     O
    O   1.0     0.689118     0.896775     0.429651  Biso 1.000000     O
    O   1.0     0.687112     0.288868     0.914209  Biso 1.000000     O
    O   1.0     0.847523     0.300016     0.939762  Biso 1.000000     O
    O   1.0     0.971874     0.119530     0.233925  Biso 1.000000     O
    O   1.0     0.589266     0.138947     0.692640  Biso 1.000000     O
    O   1.0     0.591696     0.049563     0.768509  Biso 1.000000     O
    O   1.0     0.895150     0.188393     0.305448  Biso 1.000000     O
    O   1.0     0.328367     0.738931     0.955812  Biso 1.000000     O
    O   1.0     0.146740     0.066530     0.575559  Biso 1.000000     O
    O   1.0     0.288215     0.070846     0.440510  Biso 1.000000     O
    O   1.0     0.168101     0.708422     0.929056  Biso 1.000000     O
    O   1.0     0.122963     0.058087     0.445564  Biso 1.000000     O
    O   1.0     0.310916     0.103240     0.570346  Biso 1.000000     O
    O   1.0     0.312915     0.711156     0.085785  Biso 1.000000     O
    O   1.0     0.152504     0.700000     0.060232  Biso 1.000000     O
    O   1.0     0.028166     0.880481     0.766070  Biso 1.000000     O
    O   1.0     0.410768     0.861070     0.307352  Biso 1.000000     O
    O   1.0     0.408329     0.950454     0.231485  Biso 1.000000     O
    O   1.0     0.104898     0.811628     0.694541  Biso 1.000000     O
    O   1.0     0.329584     0.239060     0.544117  Biso 1.000000     O
    O   1.0     0.145566     0.566570     0.921953  Biso 1.000000     O
    O   1.0     0.290171     0.571196     0.059495  Biso 1.000000     O
    O   1.0     0.169928     0.208047     0.570044  Biso 1.000000     O
    O   1.0     0.124932     0.558283     0.051964  Biso 1.000000     O
    O   1.0     0.309611     0.603158     0.929637  Biso 1.000000     O
    O   1.0     0.312507     0.211072     0.414213  Biso 1.000000     O
    O   1.0     0.152136     0.200036     0.438152  Biso 1.000000     O
    O   1.0     0.029137     0.380534     0.729199  Biso 1.000000     O
    O   1.0     0.408518     0.358747     0.192841  Biso 1.000000     O
    O   1.0     0.410817     0.449216     0.268345  Biso 1.000000     O
    O   1.0     0.104480     0.311820     0.802511  Biso 1.000000     O
    S   1.0     0.645449     0.604021     0.768204  Biso 1.000000     S
    S   1.0     0.884038     0.635664     0.242444  Biso 1.000000     S
    S   1.0     0.645556     0.103019     0.731853  Biso 1.000000     S
    S   1.0     0.884494     0.135772     0.260510  Biso 1.000000     S
    S   1.0     0.354473     0.896997     0.268142  Biso 1.000000     S
    S   1.0     0.115549     0.864245     0.739484  Biso 1.000000     S
    S   1.0     0.354669     0.395976     0.231793  Biso 1.000000     S
    S   1.0     0.115991     0.364353     0.757552  Biso 1.000000     S
   Zn   1.0     0.667016     0.341862     0.989557  Biso 1.000000    Zn
   Zn   1.0     0.874964     0.367222     0.010329  Biso 1.000000    Zn
   Zn   1.0     0.667056     0.841990     0.510295  Biso 1.000000    Zn
   Zn   1.0     0.874763     0.867166     0.491959  Biso 1.000000    Zn
   Zn   1.0     0.332970     0.158022     0.489702  Biso 1.000000    Zn
   Zn   1.0     0.125262     0.132848     0.508037  Biso 1.000000    Zn
   Zn   1.0     0.333018     0.658158     0.010437  Biso 1.000000    Zn
   Zn   1.0     0.125068     0.632789     0.989669  Biso 1.000000    Zn
