#======================================================================

# CRYSTAL DATA

#----------------------------------------------------------------------

data_VESTA_phase_1


_pd_phase_name                         MOF
_cell_length_a                         20.06100
_cell_length_b                         15.46100
_cell_length_c                         17.29300
_cell_angle_alpha                      89.97600
_cell_angle_beta                       90.06400
_cell_angle_gamma                      89.97000
_symmetry_space_group_name_H-M         "P 1"
_symmetry_Int_Tables_number            1

loop_
_symmetry_equiv_pos_as_xyz
   "x, y, z"

loop_
   _atom_site_label
   _atom_site_occupancy
   _atom_site_fract_x
   _atom_site_fract_y
   _atom_site_fract_z
   _atom_site_adp_type
   _atom_site_B_iso_or_equiv
   _atom_site_type_symbol
    H   1.0     0.218477     0.709006     0.082011  Biso 1.000000     H
    H   1.0     0.718467     0.709004     0.082007  Biso 1.000000     H
    H   1.0     0.380181     0.341680    -0.001414  Biso 1.000000     H
    H   1.0     0.880170     0.341681    -0.001414  Biso 1.000000     H
    H   1.0     0.198988     0.555944     0.047745  Biso 1.000000     H
    H   1.0     0.698977     0.555941     0.047743  Biso 1.000000     H
    H   1.0     0.117282     0.704755     0.978134  Biso 1.000000     H
    H   1.0     0.617271     0.704750     0.978130  Biso 1.000000     H
    H   1.0     0.136930     0.606008     0.931350  Biso 1.000000     H
    H   1.0     0.636921     0.606004     0.931347  Biso 1.000000     H
    H   1.0     0.224519     0.687799     0.222077  Biso 1.000000     H
    H   1.0     0.724506     0.687800     0.222073  Biso 1.000000     H
    H   1.0     0.180409     0.590542     0.209187  Biso 1.000000     H
    H   1.0     0.680396     0.590542     0.209184  Biso 1.000000     H
    H   1.0     0.344431     0.390279     0.123169  Biso 1.000000     H
    H   1.0     0.844420     0.390278     0.123172  Biso 1.000000     H
    H   1.0     0.237931     0.460018     0.158226  Biso 1.000000     H
    H   1.0     0.737920     0.460017     0.158226  Biso 1.000000     H
    H   1.0     0.342947     0.704313     0.162199  Biso 1.000000     H
    H   1.0     0.842934     0.704313     0.162197  Biso 1.000000     H
    H   1.0     0.446045     0.623542     0.127972  Biso 1.000000     H
    H   1.0     0.946033     0.623542     0.127971  Biso 1.000000     H
    H   1.0     0.431420     0.201316     0.972095  Biso 1.000000     H
    H   1.0     0.931407     0.201318     0.972096  Biso 1.000000     H
    H   1.0     0.417860     0.145267     0.095975  Biso 1.000000     H
    H   1.0     0.917846     0.145269     0.095976  Biso 1.000000     H
    H   1.0     0.357368     0.224684     0.080873  Biso 1.000000     H
    H   1.0     0.857356     0.224689     0.080876  Biso 1.000000     H
    H   1.0     0.004212     0.345938     0.906601  Biso 1.000000     H
    H   1.0     0.504200     0.345937     0.906599  Biso 1.000000     H
    H   1.0     0.425120     0.303979     0.876812  Biso 1.000000     H
    H   1.0     0.925109     0.303980     0.876813  Biso 1.000000     H
    H   1.0     0.468685     0.654070     0.916306  Biso 1.000000     H
    H   1.0     0.968674     0.654071     0.916303  Biso 1.000000     H
    H   1.0     0.014472     0.507454     0.939574  Biso 1.000000     H
    H   1.0     0.514460     0.507452     0.939574  Biso 1.000000     H
    H   1.0     0.334681     0.402858     0.838744  Biso 1.000000     H
    H   1.0     0.834670     0.402859     0.838744  Biso 1.000000     H
    H   1.0     0.298219     0.555110     0.812855  Biso 1.000000     H
    H   1.0     0.798209     0.555111     0.812852  Biso 1.000000     H
    H   1.0     0.031741     0.291074     0.581956  Biso 1.000000     H
    H   1.0     0.531727     0.291076     0.581956  Biso 1.000000     H
    H   1.0     0.369887     0.658556     0.498500  Biso 1.000000     H
    H   1.0     0.869873     0.658555     0.498498  Biso 1.000000     H
    H   1.0     0.051191     0.444175     0.547711  Biso 1.000000     H
    H   1.0     0.551179     0.444177     0.547710  Biso 1.000000     H
    H   1.0     0.132872     0.295422     0.478237  Biso 1.000000     H
    H   1.0     0.632859     0.295423     0.478238  Biso 1.000000     H
    H   1.0     0.113076     0.394141     0.431365  Biso 1.000000     H
    H   1.0     0.613064     0.394141     0.431365  Biso 1.000000     H
    H   1.0     0.025872     0.312036     0.721998  Biso 1.000000     H
    H   1.0     0.525860     0.312039     0.721999  Biso 1.000000     H
    H   1.0     0.069967     0.409309     0.709239  Biso 1.000000     H
    H   1.0     0.569955     0.409312     0.709238  Biso 1.000000     H
    H   1.0     0.405837     0.609791     0.623278  Biso 1.000000     H
    H   1.0     0.905828     0.609788     0.623272  Biso 1.000000     H
    H   1.0     0.012447     0.539902     0.658136  Biso 1.000000     H
    H   1.0     0.512433     0.539905     0.658142  Biso 1.000000     H
    H   1.0     0.407305     0.295701     0.662222  Biso 1.000000     H
    H   1.0     0.907292     0.295701     0.662227  Biso 1.000000     H
    H   1.0     0.304144     0.376600     0.628117  Biso 1.000000     H
    H   1.0     0.804132     0.376600     0.628122  Biso 1.000000     H
    H   1.0     0.318433     0.798885     0.471687  Biso 1.000000     H
    H   1.0     0.818419     0.798883     0.471683  Biso 1.000000     H
    H   1.0     0.332968     0.855478     0.594983  Biso 1.000000     H
    H   1.0     0.832952     0.855478     0.594980  Biso 1.000000     H
    H   1.0     0.392983     0.775311     0.580513  Biso 1.000000     H
    H   1.0     0.892969     0.775314     0.580510  Biso 1.000000     H
    H   1.0     0.245513     0.654192     0.406789  Biso 1.000000     H
    H   1.0     0.745498     0.654185     0.406790  Biso 1.000000     H
    H   1.0     0.324440     0.696215     0.376716  Biso 1.000000     H
    H   1.0     0.824423     0.696210     0.376713  Biso 1.000000     H
    H   1.0     0.281278     0.346136     0.416965  Biso 1.000000     H
    H   1.0     0.781268     0.346131     0.416973  Biso 1.000000     H
    H   1.0     0.235438     0.492753     0.439950  Biso 1.000000     H
    H   1.0     0.735425     0.492747     0.439954  Biso 1.000000     H
    H   1.0     0.414815     0.597412     0.338599  Biso 1.000000     H
    H   1.0     0.914799     0.597408     0.338598  Biso 1.000000     H
    H   1.0     0.451322     0.445147     0.312967  Biso 1.000000     H
    H   1.0     0.951308     0.445143     0.312969  Biso 1.000000     H
    H   1.0     0.281519     0.209111     0.418563  Biso 1.000000     H
    H   1.0     0.781507     0.209106     0.418563  Biso 1.000000     H
    H   1.0     0.119910     0.842227     0.502358  Biso 1.000000     H
    H   1.0     0.619898     0.842229     0.502348  Biso 1.000000     H
    H   1.0     0.301120     0.055934     0.452462  Biso 1.000000     H
    H   1.0     0.801111     0.055933     0.452472  Biso 1.000000     H
    H   1.0     0.382808     0.204362     0.522444  Biso 1.000000     H
    H   1.0     0.882796     0.204370     0.522444  Biso 1.000000     H
    H   1.0     0.362888     0.105596     0.569059  Biso 1.000000     H
    H   1.0     0.862881     0.105605     0.569066  Biso 1.000000     H
    H   1.0     0.275524     0.188554     0.278455  Biso 1.000000     H
    H   1.0     0.775521     0.188533     0.278452  Biso 1.000000     H
    H   1.0     0.319750     0.091263     0.291010  Biso 1.000000     H
    H   1.0     0.819745     0.091244     0.291024  Biso 1.000000     H
    H   1.0     0.155935     0.890468     0.376823  Biso 1.000000     H
    H   1.0     0.655918     0.890460     0.376816  Biso 1.000000     H
    H   1.0     0.262417     0.960449     0.341974  Biso 1.000000     H
    H   1.0     0.762404     0.960435     0.341978  Biso 1.000000     H
    H   1.0     0.156998     0.204602     0.337979  Biso 1.000000     H
    H   1.0     0.656995     0.204596     0.337987  Biso 1.000000     H
    H   1.0     0.053975     0.123633     0.371935  Biso 1.000000     H
    H   1.0     0.553968     0.123632     0.371935  Biso 1.000000     H
    H   1.0     0.068677     0.702009     0.529294  Biso 1.000000     H
    H   1.0     0.568670     0.702011     0.529283  Biso 1.000000     H
    H   1.0     0.082628     0.644903     0.406097  Biso 1.000000     H
    H   1.0     0.582616     0.644905     0.406084  Biso 1.000000     H
    H   1.0     0.142889     0.724627     0.420522  Biso 1.000000     H
    H   1.0     0.642877     0.724630     0.420507  Biso 1.000000     H
    H   1.0     0.495541     0.847013     0.593575  Biso 1.000000     H
    H   1.0     0.995534     0.847008     0.593593  Biso 1.000000     H
    H   1.0     0.074404     0.804734     0.623930  Biso 1.000000     H
    H   1.0     0.574385     0.804739     0.623919  Biso 1.000000     H
    H   1.0     0.031647     0.154937     0.583561  Biso 1.000000     H
    H   1.0     0.531638     0.154942     0.583533  Biso 1.000000     H
    H   1.0     0.485800     0.008474     0.560086  Biso 1.000000     H
    H   1.0     0.985786     0.008468     0.560114  Biso 1.000000     H
    H   1.0     0.164852     0.903244     0.662441  Biso 1.000000     H
    H   1.0     0.664829     0.903247     0.662439  Biso 1.000000     H
    H   1.0     0.201398     0.055376     0.688441  Biso 1.000000     H
    H   1.0     0.701376     0.055379     0.688441  Biso 1.000000     H
    H   1.0     0.468361     0.790908     0.918407  Biso 1.000000     H
    H   1.0     0.968349     0.790907     0.918408  Biso 1.000000     H
    H   1.0     0.130190     0.157812     0.000000  Biso 1.000000     H
    H   1.0     0.630179     0.157813     0.000000  Biso 1.000000     H
    H   1.0     0.448809     0.944004     0.952465  Biso 1.000000     H
    H   1.0     0.948798     0.944004     0.952466  Biso 1.000000     H
    H   1.0     0.367256     0.795366     0.022175  Biso 1.000000     H
    H   1.0     0.867245     0.795366     0.022176  Biso 1.000000     H
    H   1.0     0.387071     0.894092     0.068906  Biso 1.000000     H
    H   1.0     0.887060     0.894093     0.068907  Biso 1.000000     H
    H   1.0     0.474213     0.811890     0.778329  Biso 1.000000     H
    H   1.0     0.974202     0.811889     0.778329  Biso 1.000000     H
    H   1.0     0.429986     0.909127     0.791002  Biso 1.000000     H
    H   1.0     0.929975     0.909126     0.791002  Biso 1.000000     H
    H   1.0     0.093990     0.109691     0.876995  Biso 1.000000     H
    H   1.0     0.593978     0.109691     0.876995  Biso 1.000000     H
    H   1.0     0.487419     0.039821     0.842056  Biso 1.000000     H
    H   1.0     0.987408     0.039821     0.842054  Biso 1.000000     H
    H   1.0     0.092745     0.795603     0.838108  Biso 1.000000     H
    H   1.0     0.592733     0.795603     0.838105  Biso 1.000000     H
    H   1.0     0.195854     0.876472     0.872162  Biso 1.000000     H
    H   1.0     0.695843     0.876472     0.872158  Biso 1.000000     H
    H   1.0     0.181430     0.297979     0.029122  Biso 1.000000     H
    H   1.0     0.681418     0.297979     0.029120  Biso 1.000000     H
    H   1.0     0.167268     0.355020     0.905900  Biso 1.000000     H
    H   1.0     0.667257     0.355021     0.905898  Biso 1.000000     H
    H   1.0     0.107175     0.275058     0.920191  Biso 1.000000     H
    H   1.0     0.607163     0.275059     0.920190  Biso 1.000000     H
    H   1.0     0.254721     0.152923     0.093568  Biso 1.000000     H
    H   1.0     0.754711     0.152924     0.093565  Biso 1.000000     H
    H   1.0     0.175934     0.195182     0.123885  Biso 1.000000     H
    H   1.0     0.675925     0.195182     0.123883  Biso 1.000000     H
    H   1.0     0.218564     0.844990     0.083627  Biso 1.000000     H
    H   1.0     0.718554     0.844990     0.083618  Biso 1.000000     H
    H   1.0     0.264374     0.991443     0.060109  Biso 1.000000     H
    H   1.0     0.764365     0.991444     0.060105  Biso 1.000000     H
    H   1.0     0.085576     0.096683     0.162442  Biso 1.000000     H
    H   1.0     0.585567     0.096682     0.162440  Biso 1.000000     H
    H   1.0     0.049069     0.944539     0.188542  Biso 1.000000     H
    H   1.0     0.549059     0.944538     0.188536  Biso 1.000000     H
    C   1.0     0.095586     0.564773     0.076954  Biso 1.000000     C
    C   1.0     0.595575     0.564771     0.076952  Biso 1.000000     C
    C   1.0     0.161860     0.608133     0.053394  Biso 1.000000     C
    C   1.0     0.661849     0.608130     0.053391  Biso 1.000000     C
    C   1.0     0.154974     0.652928     0.974068  Biso 1.000000     C
    C   1.0     0.654963     0.652924     0.974064  Biso 1.000000     C
    C   1.0     0.219822     0.693201     0.943483  Biso 1.000000     C
    C   1.0     0.719811     0.693200     0.943481  Biso 1.000000     C
    C   1.0     0.215807     0.634671     0.181138  Biso 1.000000     C
    C   1.0     0.715795     0.634671     0.181135  Biso 1.000000     C
    C   1.0     0.342554     0.459622     0.132918  Biso 1.000000     C
    C   1.0     0.842542     0.459621     0.132919  Biso 1.000000     C
    C   1.0     0.282730     0.499374     0.152367  Biso 1.000000     C
    C   1.0     0.782719     0.499373     0.152367  Biso 1.000000     C
    C   1.0     0.280587     0.588967     0.163229  Biso 1.000000     C
    C   1.0     0.780575     0.588966     0.163228  Biso 1.000000     C
    C   1.0     0.340555     0.634394     0.154213  Biso 1.000000     C
    C   1.0     0.840543     0.634393     0.154211  Biso 1.000000     C
    C   1.0     0.398636     0.590210     0.134867  Biso 1.000000     C
    C   1.0     0.898624     0.590210     0.134867  Biso 1.000000     C
    C   1.0     0.023751     0.230960     0.028628  Biso 1.000000     C
    C   1.0     0.523740     0.230959     0.028628  Biso 1.000000     C
    C   1.0     0.448537     0.245002     0.018261  Biso 1.000000     C
    C   1.0     0.948525     0.245003     0.018262  Biso 1.000000     C
    C   1.0     0.411042     0.215553     0.091126  Biso 1.000000     C
    C   1.0     0.911029     0.215556     0.091128  Biso 1.000000     C
    C   1.0     0.425355     0.253457     0.171179  Biso 1.000000     C
    C   1.0     0.925345     0.253459     0.171181  Biso 1.000000     C
    C   1.0     0.449932     0.352346     0.913929  Biso 1.000000     C
    C   1.0     0.949920     0.352347     0.913930  Biso 1.000000     C
    C   1.0     0.440875     0.597132     0.897859  Biso 1.000000     C
    C   1.0     0.940864     0.597133     0.897858  Biso 1.000000     C
    C   1.0     0.465845     0.514694     0.911906  Biso 1.000000     C
    C   1.0     0.965834     0.514695     0.911906  Biso 1.000000     C
    C   1.0     0.427681     0.442235     0.891908  Biso 1.000000     C
    C   1.0     0.927670     0.442236     0.891908  Biso 1.000000     C
    C   1.0     0.366509     0.456880     0.855210  Biso 1.000000     C
    C   1.0     0.866498     0.456880     0.855209  Biso 1.000000     C
    C   1.0     0.345547     0.541302     0.841302  Biso 1.000000     C
    C   1.0     0.845537     0.541302     0.841300  Biso 1.000000     C
    C   1.0     0.154650     0.435326     0.577014  Biso 1.000000     C
    C   1.0     0.654637     0.435327     0.577013  Biso 1.000000     C
    C   1.0     0.088330     0.391987     0.553407  Biso 1.000000     C
    C   1.0     0.588317     0.391989     0.553406  Biso 1.000000     C
    C   1.0     0.095135     0.347200     0.474112  Biso 1.000000     C
    C   1.0     0.595122     0.347201     0.474112  Biso 1.000000     C
    C   1.0     0.030277     0.306876     0.443495  Biso 1.000000     C
    C   1.0     0.530264     0.306876     0.443495  Biso 1.000000     C
    C   1.0     0.034531     0.365247     0.681114  Biso 1.000000     C
    C   1.0     0.534519     0.365250     0.681114  Biso 1.000000     C
    C   1.0     0.407736     0.540434     0.632988  Biso 1.000000     C
    C   1.0     0.907726     0.540432     0.632985  Biso 1.000000     C
    C   1.0     0.467593     0.500601     0.652337  Biso 1.000000     C
    C   1.0     0.967583     0.500599     0.652333  Biso 1.000000     C
    C   1.0     0.469718     0.410998     0.663202  Biso 1.000000     C
    C   1.0     0.969707     0.410996     0.663202  Biso 1.000000     C
    C   1.0     0.409706     0.365627     0.654233  Biso 1.000000     C
    C   1.0     0.909694     0.365626     0.654236  Biso 1.000000     C
    C   1.0     0.351589     0.409882     0.634975  Biso 1.000000     C
    C   1.0     0.851578     0.409881     0.634978  Biso 1.000000     C
    C   1.0     0.226422     0.769291     0.528688  Biso 1.000000     C
    C   1.0     0.726408     0.769289     0.528686  Biso 1.000000     C
    C   1.0     0.301583     0.755314     0.518068  Biso 1.000000     C
    C   1.0     0.801569     0.755312     0.518066  Biso 1.000000     C
    C   1.0     0.339383     0.785100     0.590693  Biso 1.000000     C
    C   1.0     0.839369     0.785100     0.590691  Biso 1.000000     C
    C   1.0     0.324966     0.747886     0.670937  Biso 1.000000     C
    C   1.0     0.824954     0.747886     0.670935  Biso 1.000000     C
    C   1.0     0.299814     0.647850     0.413974  Biso 1.000000     C
    C   1.0     0.799799     0.647845     0.413974  Biso 1.000000     C
    C   1.0     0.308979     0.403089     0.398355  Biso 1.000000     C
    C   1.0     0.808967     0.403084     0.398360  Biso 1.000000     C
    C   1.0     0.283979     0.485514     0.412240  Biso 1.000000     C
    C   1.0     0.783966     0.485509     0.412243  Biso 1.000000     C
    C   1.0     0.322038     0.557977     0.392035  Biso 1.000000     C
    C   1.0     0.822024     0.557972     0.392036  Biso 1.000000     C
    C   1.0     0.383099     0.543367     0.355252  Biso 1.000000     C
    C   1.0     0.883085     0.543363     0.355253  Biso 1.000000     C
    C   1.0     0.404088     0.458951     0.341500  Biso 1.000000     C
    C   1.0     0.904074     0.458947     0.341503  Biso 1.000000     C
    C   1.0     0.404504     0.064767     0.423191  Biso 1.000000     C
    C   1.0     0.904495     0.064767     0.423196  Biso 1.000000     C
    C   1.0     0.338224     0.108120     0.446903  Biso 1.000000     C
    C   1.0     0.838215     0.108120     0.446910  Biso 1.000000     C
    C   1.0     0.345027     0.152672     0.526320  Biso 1.000000     C
    C   1.0     0.845018     0.152677     0.526324  Biso 1.000000     C
    C   1.0     0.280176     0.193196     0.556753  Biso 1.000000     C
    C   1.0     0.780165     0.193198     0.556755  Biso 1.000000     C
    C   1.0     0.284289     0.135212     0.319203  Biso 1.000000     C
    C   1.0     0.784282     0.135197     0.319208  Biso 1.000000     C
    C   1.0     0.157767     0.959841     0.367155  Biso 1.000000     C
    C   1.0     0.657753     0.959832     0.367152  Biso 1.000000     C
    C   1.0     0.217545    -0.000263     0.347813  Biso 1.000000     C
    C   1.0     0.717533    -0.000274     0.347816  Biso 1.000000     C
    C   1.0     0.219563     0.089361     0.337006  Biso 1.000000     C
    C   1.0     0.719555     0.089350     0.337011  Biso 1.000000     C
    C   1.0     0.159500     0.134674     0.345930  Biso 1.000000     C
    C   1.0     0.659494     0.134666     0.345935  Biso 1.000000     C
    C   1.0     0.101453     0.090382     0.365130  Biso 1.000000     C
    C   1.0     0.601445     0.090378     0.365131  Biso 1.000000     C
    C   1.0     0.476435     0.731460     0.472491  Biso 1.000000     C
    C   1.0     0.976422     0.731461     0.472495  Biso 1.000000     C
    C   1.0     0.051654     0.745374     0.482792  Biso 1.000000     C
    C   1.0     0.551644     0.745375     0.482782  Biso 1.000000     C
    C   1.0     0.089250     0.715262     0.410223  Biso 1.000000     C
    C   1.0     0.589238     0.715264     0.410210  Biso 1.000000     C
    C   1.0     0.074954     0.752245     0.329815  Biso 1.000000     C
    C   1.0     0.574940     0.752247     0.329803  Biso 1.000000     C
    C   1.0     0.049868     0.853164     0.586563  Biso 1.000000     C
    C   1.0     0.549852     0.853168     0.586550  Biso 1.000000     C
    C   1.0     0.059269     0.097912     0.602290  Biso 1.000000     C
    C   1.0     0.559257     0.097917     0.602268  Biso 1.000000     C
    C   1.0     0.034266     0.015562     0.588160  Biso 1.000000     C
    C   1.0     0.534254     0.015567     0.588138  Biso 1.000000     C
    C   1.0     0.072198     0.942965     0.608565  Biso 1.000000     C
    C   1.0     0.572181     0.942969     0.608550  Biso 1.000000     C
    C   1.0     0.133188     0.957376     0.645707  Biso 1.000000     C
    C   1.0     0.633168     0.957379     0.645700  Biso 1.000000     C
    C   1.0     0.154212     0.041734     0.659652  Biso 1.000000     C
    C   1.0     0.654192     0.041737     0.659645  Biso 1.000000     C
    C   1.0     0.345383     0.935217     0.923165  Biso 1.000000     C
    C   1.0     0.845372     0.935217     0.923165  Biso 1.000000     C
    C   1.0     0.411697     0.891830     0.946834  Biso 1.000000     C
    C   1.0     0.911686     0.891830     0.946835  Biso 1.000000     C
    C   1.0     0.404978     0.847120     0.026185  Biso 1.000000     C
    C   1.0     0.904967     0.847120     0.026186  Biso 1.000000     C
    C   1.0     0.469888     0.806702     0.056707  Biso 1.000000     C
    C   1.0     0.969877     0.806702     0.056707  Biso 1.000000     C
    C   1.0     0.465483     0.865104     0.819160  Biso 1.000000     C
    C   1.0     0.965472     0.865103     0.819161  Biso 1.000000     C
    C   1.0     0.092121     0.040333     0.867300  Biso 1.000000     C
    C   1.0     0.592109     0.040333     0.867300  Biso 1.000000     C
    C   1.0     0.032300     0.000000     0.847912  Biso 1.000000     C
    C   1.0     0.532287     0.000000     0.847912  Biso 1.000000     C
    C   1.0     0.030243     0.910893     0.837080  Biso 1.000000     C
    C   1.0     0.530231     0.910894     0.837079  Biso 1.000000     C
    C   1.0     0.090292     0.865525     0.846063  Biso 1.000000     C
    C   1.0     0.590280     0.865525     0.846060  Biso 1.000000     C
    C   1.0     0.148379     0.909754     0.865314  Biso 1.000000     C
    C   1.0     0.648367     0.909754     0.865311  Biso 1.000000     C
    C   1.0     0.273647     0.268519     0.972520  Biso 1.000000     C
    C   1.0     0.773635     0.268520     0.972519  Biso 1.000000     C
    C   1.0     0.198446     0.254599     0.982714  Biso 1.000000     C
    C   1.0     0.698435     0.254599     0.982712  Biso 1.000000     C
    C   1.0     0.160796     0.284639     0.910031  Biso 1.000000     C
    C   1.0     0.660785     0.284639     0.910029  Biso 1.000000     C
    C   1.0     0.175163     0.247740     0.829671  Biso 1.000000     C
    C   1.0     0.675150     0.247739     0.829669  Biso 1.000000     C
    C   1.0     0.200397     0.146772     0.086534  Biso 1.000000     C
    C   1.0     0.700387     0.146773     0.086532  Biso 1.000000     C
    C   1.0     0.190990     0.902008     0.102350  Biso 1.000000     C
    C   1.0     0.690980     0.902008     0.102343  Biso 1.000000     C
    C   1.0     0.215977     0.984358     0.088176  Biso 1.000000     C
    C   1.0     0.715967     0.984359     0.088172  Biso 1.000000     C
    C   1.0     0.178101     0.056959     0.108558  Biso 1.000000     C
    C   1.0     0.678091     0.056959     0.108555  Biso 1.000000     C
    C   1.0     0.117189     0.042542     0.145724  Biso 1.000000     C
    C   1.0     0.617180     0.042542     0.145721  Biso 1.000000     C
    C   1.0     0.096189     0.958182     0.159719  Biso 1.000000     C
    C   1.0     0.596179     0.958182     0.159713  Biso 1.000000     C
    N   1.0     0.182996     0.672720     0.111613  Biso 1.000000     N
    N   1.0     0.682985     0.672718     0.111609  Biso 1.000000     N
    N   1.0     0.400044     0.503653     0.124125  Biso 1.000000     N
    N   1.0     0.900032     0.503652     0.124126  Biso 1.000000     N
    N   1.0     0.432593     0.335367    -0.003845  Biso 1.000000     N
    N   1.0     0.932582     0.335368    -0.003844  Biso 1.000000     N
    N   1.0     0.381509     0.610963     0.863220  Biso 1.000000     N
    N   1.0     0.881498     0.610964     0.863218  Biso 1.000000     N
    N   1.0     0.067255     0.327338     0.611593  Biso 1.000000     N
    N   1.0     0.567241     0.327340     0.611593  Biso 1.000000     N
    N   1.0     0.350194     0.496461     0.624275  Biso 1.000000     N
    N   1.0     0.850183     0.496460     0.624275  Biso 1.000000     N
    N   1.0     0.317471     0.664922     0.496139  Biso 1.000000     N
    N   1.0     0.817457     0.664920     0.496137  Biso 1.000000     N
    N   1.0     0.368258     0.389293     0.363673  Biso 1.000000     N
    N   1.0     0.868245     0.389288     0.363677  Biso 1.000000     N
    N   1.0     0.317037     0.172946     0.388854  Biso 1.000000     N
    N   1.0     0.817027     0.172941     0.388857  Biso 1.000000     N
    N   1.0     0.100189     0.003803     0.375840  Biso 1.000000     N
    N   1.0     0.600177     0.003798     0.375836  Biso 1.000000     N
    N   1.0     0.067502     0.835856     0.504461  Biso 1.000000     N
    N   1.0     0.567489     0.835858     0.504449  Biso 1.000000     N
    N   1.0     0.118448     0.111501     0.637395  Biso 1.000000     N
    N   1.0     0.618432     0.111504     0.637382  Biso 1.000000     N
    N   1.0     0.432817     0.827161     0.888715  Biso 1.000000     N
    N   1.0     0.932805     0.827160     0.888715  Biso 1.000000     N
    N   1.0     0.149689     0.996318     0.876025  Biso 1.000000     N
    N   1.0     0.649677     0.996318     0.876023  Biso 1.000000     N
    N   1.0     0.182613     0.164119     0.000000  Biso 1.000000     N
    N   1.0     0.682602     0.164120     0.000000  Biso 1.000000     N
    N   1.0     0.131886     0.888409     0.137482  Biso 1.000000     N
    N   1.0     0.631876     0.888408     0.137474  Biso 1.000000     N
    O   1.0     0.055034     0.604148     0.120135  Biso 1.000000     O
    O   1.0     0.555022     0.604148     0.120132  Biso 1.000000     O
    O   1.0     0.086105     0.488837     0.049730  Biso 1.000000     O
    O   1.0     0.586094     0.488835     0.049729  Biso 1.000000     O
    O   1.0     0.227536     0.692582     0.870002  Biso 1.000000     O
    O   1.0     0.727525     0.692582     0.870000  Biso 1.000000     O
    O   1.0     0.261448     0.726121     0.990199  Biso 1.000000     O
    O   1.0     0.761436     0.726121     0.990198  Biso 1.000000     O
    O   1.0     0.058675     0.292695     0.056389  Biso 1.000000     O
    O   1.0     0.558663     0.292695     0.056390  Biso 1.000000     O
    O   1.0     0.045616     0.157472     0.009031  Biso 1.000000     O
    O   1.0     0.545606     0.157472     0.009030  Biso 1.000000     O
    O   1.0     0.454048     0.325548     0.182860  Biso 1.000000     O
    O   1.0     0.954041     0.325547     0.182861  Biso 1.000000     O
    O   1.0     0.402699     0.206665     0.226149  Biso 1.000000     O
    O   1.0     0.902687     0.206667     0.226150  Biso 1.000000     O
    O   1.0     0.195290     0.395820     0.620124  Biso 1.000000     O
    O   1.0     0.695277     0.395821     0.620124  Biso 1.000000     O
    O   1.0     0.164055     0.511333     0.549880  Biso 1.000000     O
    O   1.0     0.664043     0.511334     0.549880  Biso 1.000000     O
    O   1.0     0.022472     0.307467     0.370025  Biso 1.000000     O
    O   1.0     0.522459     0.307467     0.370024  Biso 1.000000     O
    O   1.0     0.488650     0.273952     0.490175  Biso 1.000000     O
    O   1.0     0.988639     0.273952     0.490175  Biso 1.000000     O
    O   1.0     0.191606     0.707490     0.556539  Biso 1.000000     O
    O   1.0     0.691593     0.707489     0.556538  Biso 1.000000     O
    O   1.0     0.204468     0.842790     0.509185  Biso 1.000000     O
    O   1.0     0.704454     0.842787     0.509180  Biso 1.000000     O
    O   1.0     0.297194     0.675203     0.682853  Biso 1.000000     O
    O   1.0     0.797182     0.675203     0.682852  Biso 1.000000     O
    O   1.0     0.346684     0.795653     0.725792  Biso 1.000000     O
    O   1.0     0.846672     0.795653     0.725789  Biso 1.000000     O
    O   1.0     0.444982     0.104292     0.380034  Biso 1.000000     O
    O   1.0     0.944971     0.104290     0.380036  Biso 1.000000     O
    O   1.0     0.414027     0.988694     0.450218  Biso 1.000000     O
    O   1.0     0.914018     0.988693     0.450223  Biso 1.000000     O
    O   1.0     0.272427     0.192610     0.630225  Biso 1.000000     O
    O   1.0     0.772415     0.192611     0.630227  Biso 1.000000     O
    O   1.0     0.238585     0.226127     0.509952  Biso 1.000000     O
    O   1.0     0.738574     0.226127     0.509953  Biso 1.000000     O
    O   1.0     0.441593     0.792666     0.443521  Biso 1.000000     O
    O   1.0     0.941582     0.792668     0.443523  Biso 1.000000     O
    O   1.0     0.454489     0.658449     0.493300  Biso 1.000000     O
    O   1.0     0.954475     0.658449     0.493301  Biso 1.000000     O
    O   1.0     0.047166     0.824893     0.317505  Biso 1.000000     O
    O   1.0     0.547151     0.824895     0.317494  Biso 1.000000     O
    O   1.0     0.096737     0.704201     0.275231  Biso 1.000000     O
    O   1.0     0.596723     0.704203     0.275218  Biso 1.000000     O
    O   1.0     0.304779     0.895761     0.880050  Biso 1.000000     O
    O   1.0     0.804768     0.895761     0.880050  Biso 1.000000     O
    O   1.0     0.335966     0.011266     0.950220  Biso 1.000000     O
    O   1.0     0.835955     0.011266     0.950220  Biso 1.000000     O
    O   1.0     0.477714     0.807300     0.130192  Biso 1.000000     O
    O   1.0     0.977703     0.807300     0.130193  Biso 1.000000     O
    O   1.0     0.011451     0.773824     0.009962  Biso 1.000000     O
    O   1.0     0.511439     0.773825     0.009962  Biso 1.000000     O
    O   1.0     0.308431     0.207325     0.943582  Biso 1.000000     O
    O   1.0     0.808420     0.207325     0.943582  Biso 1.000000     O
    O   1.0     0.295622     0.341527     0.993307  Biso 1.000000     O
    O   1.0     0.795610     0.341527     0.993306  Biso 1.000000     O
    O   1.0     0.202829     0.175022     0.817443  Biso 1.000000     O
    O   1.0     0.702817     0.175022     0.817441  Biso 1.000000     O
    O   1.0     0.153511     0.295884     0.774997  Biso 1.000000     O
    O   1.0     0.653497     0.295882     0.774995  Biso 1.000000     O
   Cd   1.0    -0.006635     0.416215     0.086543  Biso 1.000000    Cd
   Cd   1.0     0.493352     0.416214     0.086542  Biso 1.000000    Cd
   Cd   1.0     0.331420     0.749703     0.848329  Biso 1.000000    Cd
   Cd   1.0     0.831409     0.749704     0.848326  Biso 1.000000    Cd
   Cd   1.0     0.256989     0.584131     0.586774  Biso 1.000000    Cd
   Cd   1.0     0.756978     0.584130     0.586774  Biso 1.000000    Cd
   Cd   1.0     0.418341     0.250642     0.349001  Biso 1.000000    Cd
   Cd   1.0     0.918330     0.250639     0.349004  Biso 1.000000    Cd
   Cd   1.0     0.506976     0.916147     0.413330  Biso 1.000000    Cd
   Cd   1.0     0.000000     0.916148     0.413340  Biso 1.000000    Cd
   Cd   1.0     0.168698     0.249984     0.652362  Biso 1.000000    Cd
   Cd   1.0     0.668684     0.249984     0.652359  Biso 1.000000    Cd
   Cd   1.0     0.242996     0.083841     0.913415  Biso 1.000000    Cd
   Cd   1.0     0.742985     0.083841     0.913413  Biso 1.000000    Cd
   Cd   1.0     0.081538     0.749954     0.152428  Biso 1.000000    Cd
   Cd   1.0     0.581527     0.749955     0.152416  Biso 1.000000    Cd
