#======================================================================

# CRYSTAL DATA

#----------------------------------------------------------------------

data_VESTA_phase_1


_pd_phase_name                         MOF
_cell_length_a                         23.06800
_cell_length_b                         16.55200
_cell_length_c                         16.55200
_cell_angle_alpha                      90.01100
_cell_angle_beta                       89.99900
_cell_angle_gamma                      90.00200
_symmetry_space_group_name_H-M         "P 1"
_symmetry_Int_Tables_number            1

loop_
_symmetry_equiv_pos_as_xyz
   "x, y, z"

loop_
   _atom_site_label
   _atom_site_occupancy
   _atom_site_fract_x
   _atom_site_fract_y
   _atom_site_fract_z
   _atom_site_adp_type
   _atom_site_B_iso_or_equiv
   _atom_site_type_symbol
    H   1.0     0.092987     0.155543     0.245343  Biso 1.000000     H
    H   1.0     0.592988     0.155543     0.245344  Biso 1.000000     H
    H   1.0     0.092938     0.844427     0.754676  Biso 1.000000     H
    H   1.0     0.592939     0.844428     0.754676  Biso 1.000000     H
    H   1.0     0.092953     0.754477     0.155544  Biso 1.000000     H
    H   1.0     0.592954     0.754478     0.155544  Biso 1.000000     H
    H   1.0     0.092979     0.245546     0.844471  Biso 1.000000     H
    H   1.0     0.592980     0.245546     0.844471  Biso 1.000000     H
    H   1.0     0.157024     0.344487     0.745456  Biso 1.000000     H
    H   1.0     0.657025     0.344487     0.745456  Biso 1.000000     H
    H   1.0     0.157041     0.655532     0.254556  Biso 1.000000     H
    H   1.0     0.657042     0.655531     0.254556  Biso 1.000000     H
    H   1.0     0.157032     0.745444     0.655566  Biso 1.000000     H
    H   1.0     0.657032     0.745443     0.655566  Biso 1.000000     H
    H   1.0     0.157041     0.254566     0.344426  Biso 1.000000     H
    H   1.0     0.657042     0.254566     0.344426  Biso 1.000000     H
    H   1.0     0.407010     0.844466     0.754655  Biso 1.000000     H
    H   1.0     0.907010     0.844466     0.754655  Biso 1.000000     H
    H   1.0     0.407059     0.155577     0.245327  Biso 1.000000     H
    H   1.0     0.907060     0.155577     0.245326  Biso 1.000000     H
    H   1.0     0.407047     0.245528     0.844453  Biso 1.000000     H
    H   1.0     0.907048     0.245528     0.844453  Biso 1.000000     H
    H   1.0     0.407022     0.754463     0.155530  Biso 1.000000     H
    H   1.0     0.907022     0.754463     0.155529  Biso 1.000000     H
    H   1.0     0.342974     0.655524     0.254545  Biso 1.000000     H
    H   1.0     0.842975     0.655524     0.254545  Biso 1.000000     H
    H   1.0     0.342957     0.344480     0.745454  Biso 1.000000     H
    H   1.0     0.842958     0.344480     0.745454  Biso 1.000000     H
    H   1.0     0.342970     0.254578     0.344431  Biso 1.000000     H
    H   1.0     0.842971     0.254577     0.344431  Biso 1.000000     H
    H   1.0     0.342961     0.745441     0.655569  Biso 1.000000     H
    H   1.0     0.842961     0.745440     0.655570  Biso 1.000000     H
    H   1.0     0.000002     0.486872     0.402250  Biso 1.000000     H
    H   1.0     0.500003     0.486872     0.402250  Biso 1.000000     H
    H   1.0    -0.000000     0.940414     0.175515  Biso 1.000000     H
    H   1.0     0.500000     0.940414     0.175516  Biso 1.000000     H
    H   1.0    -0.000004     0.513136     0.597748  Biso 1.000000     H
    H   1.0     0.499997     0.513136     0.597748  Biso 1.000000     H
    H   1.0    -0.000001     0.059592     0.824487  Biso 1.000000     H
    H   1.0     0.499999     0.059592     0.824486  Biso 1.000000     H
    H   1.0    -0.000002     0.597748     0.486879  Biso 1.000000     H
    H   1.0     0.499999     0.597748     0.486879  Biso 1.000000     H
    H   1.0    -0.000002     0.824366     0.940428  Biso 1.000000     H
    H   1.0     0.499999     0.824367     0.940428  Biso 1.000000     H
    H   1.0     0.000000     0.402260     0.513120  Biso 1.000000     H
    H   1.0     0.500001     0.402260     0.513120  Biso 1.000000     H
    H   1.0     0.000000     0.175641     0.059571  Biso 1.000000     H
    H   1.0     0.500001     0.175641     0.059571  Biso 1.000000     H
    H   1.0     0.250000     0.013143     0.902226  Biso 1.000000     H
    H   1.0     0.750001     0.013143     0.902226  Biso 1.000000     H
    H   1.0     0.250002     0.559626     0.675677  Biso 1.000000     H
    H   1.0     0.750003     0.559626     0.675677  Biso 1.000000     H
    H   1.0     0.249999     0.986865     0.097772  Biso 1.000000     H
    H   1.0     0.750000     0.986865     0.097772  Biso 1.000000     H
    H   1.0     0.249998     0.440385     0.324329  Biso 1.000000     H
    H   1.0     0.749998     0.440385     0.324329  Biso 1.000000     H
    H   1.0     0.249998     0.902286     0.986893  Biso 1.000000     H
    H   1.0     0.749999     0.902285     0.986893  Biso 1.000000     H
    H   1.0     0.249998     0.675489     0.440450  Biso 1.000000     H
    H   1.0     0.749999     0.675486     0.440450  Biso 1.000000     H
    H   1.0     0.250001     0.097722     0.013106  Biso 1.000000     H
    H   1.0     0.750002     0.097722     0.013106  Biso 1.000000     H
    H   1.0     0.250000     0.324548     0.559540  Biso 1.000000     H
    H   1.0     0.750001     0.324547     0.559540  Biso 1.000000     H
    C   1.0     0.052474     0.123604     0.234730  Biso 1.000000     C
    C   1.0     0.552475     0.123603     0.234730  Biso 1.000000     C
    C   1.0     0.052632     0.043403     0.207764  Biso 1.000000     C
    C   1.0     0.552632     0.043403     0.207765  Biso 1.000000     C
    C   1.0     0.108383     0.001398     0.189744  Biso 1.000000     C
    C   1.0     0.608384     0.001398     0.189745  Biso 1.000000     C
    C   1.0     0.052432     0.876384     0.765281  Biso 1.000000     C
    C   1.0     0.552433     0.876384     0.765281  Biso 1.000000     C
    C   1.0     0.052607     0.956585     0.792245  Biso 1.000000     C
    C   1.0     0.552608     0.956586     0.792244  Biso 1.000000     C
    C   1.0     0.108368     0.998584     0.810248  Biso 1.000000     C
    C   1.0     0.608368     0.998584     0.810248  Biso 1.000000     C
    C   1.0     0.052447     0.765095     0.123596  Biso 1.000000     C
    C   1.0     0.552447     0.765095     0.123596  Biso 1.000000     C
    C   1.0     0.052616     0.792087     0.043412  Biso 1.000000     C
    C   1.0     0.552617     0.792087     0.043412  Biso 1.000000     C
    C   1.0     0.108370     0.810165     0.001430  Biso 1.000000     C
    C   1.0     0.608371     0.810165     0.001430  Biso 1.000000     C
    C   1.0     0.052468     0.234917     0.876409  Biso 1.000000     C
    C   1.0     0.552469     0.234917     0.876409  Biso 1.000000     C
    C   1.0     0.052630     0.207924     0.956593  Biso 1.000000     C
    C   1.0     0.552631     0.207923     0.956593  Biso 1.000000     C
    C   1.0     0.108380     0.189849     0.998580  Biso 1.000000     C
    C   1.0     0.608381     0.189851     0.998580  Biso 1.000000     C
    C   1.0     0.197536     0.376431     0.734858  Biso 1.000000     C
    C   1.0     0.697537     0.376430     0.734858  Biso 1.000000     C
    C   1.0     0.197373     0.456625     0.707898  Biso 1.000000     C
    C   1.0     0.697374     0.456625     0.707898  Biso 1.000000     C
    C   1.0     0.141619     0.498612     0.689845  Biso 1.000000     C
    C   1.0     0.641620     0.498612     0.689846  Biso 1.000000     C
    C   1.0     0.197551     0.623583     0.265148  Biso 1.000000     C
    C   1.0     0.697551     0.623583     0.265147  Biso 1.000000     C
    C   1.0     0.197381     0.543390     0.292107  Biso 1.000000     C
    C   1.0     0.697382     0.543390     0.292106  Biso 1.000000     C
    C   1.0     0.141628     0.501410     0.310194  Biso 1.000000     C
    C   1.0     0.641628     0.501410     0.310192  Biso 1.000000     C
    C   1.0     0.197540     0.734809     0.623623  Biso 1.000000     C
    C   1.0     0.697541     0.734807     0.623623  Biso 1.000000     C
    C   1.0     0.197375     0.707801     0.543435  Biso 1.000000     C
    C   1.0     0.697375     0.707800     0.543435  Biso 1.000000     C
    C   1.0     0.141617     0.689814     0.501430  Biso 1.000000     C
    C   1.0     0.641619     0.689808     0.501430  Biso 1.000000     C
    C   1.0     0.197548     0.265206     0.376371  Biso 1.000000     C
    C   1.0     0.697549     0.265206     0.376371  Biso 1.000000     C
    C   1.0     0.197380     0.292220     0.456557  Biso 1.000000     C
    C   1.0     0.697381     0.292220     0.456557  Biso 1.000000     C
    C   1.0     0.141624     0.310216     0.498563  Biso 1.000000     C
    C   1.0     0.641625     0.310218     0.498563  Biso 1.000000     C
    C   1.0     0.447523     0.876404     0.765271  Biso 1.000000     C
    C   1.0     0.947524     0.876404     0.765271  Biso 1.000000     C
    C   1.0     0.447366     0.956605     0.792236  Biso 1.000000     C
    C   1.0     0.947367     0.956605     0.792236  Biso 1.000000     C
    C   1.0     0.391616     0.998611     0.810255  Biso 1.000000     C
    C   1.0     0.891617     0.998611     0.810255  Biso 1.000000     C
    C   1.0     0.447565     0.123621     0.234721  Biso 1.000000     C
    C   1.0     0.947566     0.123621     0.234721  Biso 1.000000     C
    C   1.0     0.447391     0.043420     0.207758  Biso 1.000000     C
    C   1.0     0.947392     0.043420     0.207757  Biso 1.000000     C
    C   1.0     0.391631     0.001421     0.189754  Biso 1.000000     C
    C   1.0     0.891631     0.001421     0.189754  Biso 1.000000     C
    C   1.0     0.447554     0.234911     0.876401  Biso 1.000000     C
    C   1.0     0.947555     0.234911     0.876401  Biso 1.000000     C
    C   1.0     0.447383     0.207920     0.956586  Biso 1.000000     C
    C   1.0     0.947384     0.207920     0.956586  Biso 1.000000     C
    C   1.0     0.391630     0.189841     0.998568  Biso 1.000000     C
    C   1.0     0.891630     0.189841     0.998568  Biso 1.000000     C
    C   1.0     0.447532     0.765091     0.123590  Biso 1.000000     C
    C   1.0     0.947533     0.765091     0.123590  Biso 1.000000     C
    C   1.0     0.447370     0.792084     0.043406  Biso 1.000000     C
    C   1.0     0.947371     0.792084     0.043406  Biso 1.000000     C
    C   1.0     0.391619     0.810156     0.001420  Biso 1.000000     C
    C   1.0     0.891620     0.810156     0.001420  Biso 1.000000     C
    C   1.0     0.302462     0.623580     0.265145  Biso 1.000000     C
    C   1.0     0.802463     0.623580     0.265145  Biso 1.000000     C
    C   1.0     0.302626     0.543387     0.292107  Biso 1.000000     C
    C   1.0     0.802626     0.543386     0.292107  Biso 1.000000     C
    C   1.0     0.358382     0.501397     0.310143  Biso 1.000000     C
    C   1.0     0.858382     0.501397     0.310143  Biso 1.000000     C
    C   1.0     0.302448     0.376428     0.734859  Biso 1.000000     C
    C   1.0     0.802449     0.376428     0.734859  Biso 1.000000     C
    C   1.0     0.302618     0.456621     0.707899  Biso 1.000000     C
    C   1.0     0.802619     0.456621     0.707899  Biso 1.000000     C
    C   1.0     0.358373     0.498600     0.689818  Biso 1.000000     C
    C   1.0     0.858373     0.498600     0.689817  Biso 1.000000     C
    C   1.0     0.302461     0.265213     0.376373  Biso 1.000000     C
    C   1.0     0.802462     0.265213     0.376373  Biso 1.000000     C
    C   1.0     0.302625     0.292223     0.456559  Biso 1.000000     C
    C   1.0     0.802626     0.292223     0.456559  Biso 1.000000     C
    C   1.0     0.358379     0.310228     0.498566  Biso 1.000000     C
    C   1.0     0.858380     0.310226     0.498566  Biso 1.000000     C
    C   1.0     0.302454     0.734810     0.623623  Biso 1.000000     C
    C   1.0     0.802454     0.734809     0.623623  Biso 1.000000     C
    C   1.0     0.302620     0.707803     0.543435  Biso 1.000000     C
    C   1.0     0.802621     0.707801     0.543436  Biso 1.000000     C
    C   1.0     0.358374     0.689785     0.501432  Biso 1.000000     C
    C   1.0     0.858375     0.689787     0.501432  Biso 1.000000     C
    C   1.0     0.000023     0.163599     0.248974  Biso 1.000000     C
    C   1.0     0.500024     0.163599     0.248974  Biso 1.000000     C
    C   1.0     0.000007     0.003004     0.195610  Biso 1.000000     C
    C   1.0     0.500008     0.003003     0.195610  Biso 1.000000     C
    C   1.0     0.000031     0.248797     0.279852  Biso 1.000000     C
    C   1.0     0.500032     0.248797     0.279852  Biso 1.000000     C
    C   1.0    -0.000027     0.836407     0.751028  Biso 1.000000     C
    C   1.0     0.499974     0.836407     0.751027  Biso 1.000000     C
    C   1.0    -0.000010     0.997003     0.804392  Biso 1.000000     C
    C   1.0     0.499991     0.997003     0.804392  Biso 1.000000     C
    C   1.0    -0.000036     0.751211     0.720145  Biso 1.000000     C
    C   1.0     0.499965     0.751211     0.720146  Biso 1.000000     C
    C   1.0    -0.000013     0.750850     0.163572  Biso 1.000000     C
    C   1.0     0.499988     0.750850     0.163572  Biso 1.000000     C
    C   1.0    -0.000005     0.804234     0.003009  Biso 1.000000     C
    C   1.0     0.499995     0.804234     0.003010  Biso 1.000000     C
    C   1.0    -0.000016     0.720073     0.248798  Biso 1.000000     C
    C   1.0     0.499985     0.720074     0.248798  Biso 1.000000     C
    C   1.0     0.000013     0.249157     0.836426  Biso 1.000000     C
    C   1.0     0.500013     0.249157     0.836426  Biso 1.000000     C
    C   1.0     0.000004     0.195773     0.996989  Biso 1.000000     C
    C   1.0     0.500005     0.195773     0.996989  Biso 1.000000     C
    C   1.0     0.000016     0.279937     0.751202  Biso 1.000000     C
    C   1.0     0.500017     0.279935     0.751201  Biso 1.000000     C
    C   1.0     0.249991     0.336444     0.749100  Biso 1.000000     C
    C   1.0     0.749991     0.336444     0.749100  Biso 1.000000     C
    C   1.0     0.249998     0.497032     0.695768  Biso 1.000000     C
    C   1.0     0.749998     0.497032     0.695768  Biso 1.000000     C
    C   1.0     0.249987     0.251218     0.779882  Biso 1.000000     C
    C   1.0     0.749988     0.251218     0.779881  Biso 1.000000     C
    C   1.0     0.250008     0.663567     0.250904  Biso 1.000000     C
    C   1.0     0.750009     0.663567     0.250904  Biso 1.000000     C
    C   1.0     0.250002     0.502980     0.304238  Biso 1.000000     C
    C   1.0     0.750002     0.502979     0.304237  Biso 1.000000     C
    C   1.0     0.250011     0.748795     0.220130  Biso 1.000000     C
    C   1.0     0.750012     0.748795     0.220131  Biso 1.000000     C
    C   1.0     0.249997     0.749060     0.663603  Biso 1.000000     C
    C   1.0     0.749997     0.749059     0.663604  Biso 1.000000     C
    C   1.0     0.249998     0.695635     0.503035  Biso 1.000000     C
    C   1.0     0.749998     0.695633     0.503036  Biso 1.000000     C
    C   1.0     0.249995     0.779838     0.748835  Biso 1.000000     C
    C   1.0     0.749995     0.779840     0.748835  Biso 1.000000     C
    C   1.0     0.250006     0.250958     0.336392  Biso 1.000000     C
    C   1.0     0.750006     0.250958     0.336392  Biso 1.000000     C
    C   1.0     0.250002     0.304395     0.496957  Biso 1.000000     C
    C   1.0     0.750003     0.304394     0.496957  Biso 1.000000     C
    C   1.0     0.250009     0.220162     0.251166  Biso 1.000000     C
    C   1.0     0.750010     0.220163     0.251165  Biso 1.000000     C
    O   1.0     0.049370     0.281482     0.291711  Biso 1.000000     O
    O   1.0     0.549371     0.281482     0.291711  Biso 1.000000     O
    O   1.0     0.155239     0.040740     0.180436  Biso 1.000000     O
    O   1.0     0.655240     0.040740     0.180436  Biso 1.000000     O
    O   1.0     0.107162     0.924134     0.183779  Biso 1.000000     O
    O   1.0     0.607163     0.924134     0.183779  Biso 1.000000     O
    O   1.0     0.049295     0.718510     0.708284  Biso 1.000000     O
    O   1.0     0.549297     0.718510     0.708284  Biso 1.000000     O
    O   1.0     0.155218     0.959236     0.819558  Biso 1.000000     O
    O   1.0     0.655219     0.959236     0.819558  Biso 1.000000     O
    O   1.0     0.107158     0.075847     0.816240  Biso 1.000000     O
    O   1.0     0.607158     0.075847     0.816240  Biso 1.000000     O
    O   1.0     0.049319     0.708233     0.281493  Biso 1.000000     O
    O   1.0     0.549320     0.708233     0.281493  Biso 1.000000     O
    O   1.0     0.155211     0.819522     0.040792  Biso 1.000000     O
    O   1.0     0.655212     0.819522     0.040792  Biso 1.000000     O
    O   1.0     0.107157     0.816215     0.924159  Biso 1.000000     O
    O   1.0     0.607158     0.816216     0.924159  Biso 1.000000     O
    O   1.0     0.049353     0.291771     0.718507  Biso 1.000000     O
    O   1.0     0.549353     0.291772     0.718507  Biso 1.000000     O
    O   1.0     0.155221     0.180475     0.959219  Biso 1.000000     O
    O   1.0     0.655222     0.180474     0.959219  Biso 1.000000     O
    O   1.0     0.107161     0.183787     0.075850  Biso 1.000000     O
    O   1.0     0.607162     0.183787     0.075850  Biso 1.000000     O
    O   1.0     0.200650     0.218531     0.791748  Biso 1.000000     O
    O   1.0     0.700651     0.218532     0.791749  Biso 1.000000     O
    O   1.0     0.094779     0.459251     0.680460  Biso 1.000000     O
    O   1.0     0.594780     0.459251     0.680459  Biso 1.000000     O
    O   1.0     0.142837     0.575880     0.683791  Biso 1.000000     O
    O   1.0     0.642838     0.575880     0.683790  Biso 1.000000     O
    O   1.0     0.200676     0.781475     0.208246  Biso 1.000000     O
    O   1.0     0.700677     0.781474     0.208245  Biso 1.000000     O
    O   1.0     0.094781     0.540768     0.319520  Biso 1.000000     O
    O   1.0     0.594782     0.540768     0.319521  Biso 1.000000     O
    O   1.0     0.142837     0.424139     0.316199  Biso 1.000000     O
    O   1.0     0.642838     0.424139     0.316199  Biso 1.000000     O
    O   1.0     0.200657     0.791786     0.781487  Biso 1.000000     O
    O   1.0     0.700657     0.791785     0.781487  Biso 1.000000     O
    O   1.0     0.094772     0.680448     0.540781  Biso 1.000000     O
    O   1.0     0.594772     0.680450     0.540781  Biso 1.000000     O
    O   1.0     0.142844     0.683746     0.424159  Biso 1.000000     O
    O   1.0     0.642844     0.683748     0.424159  Biso 1.000000     O
    O   1.0     0.200673     0.208222     0.218507  Biso 1.000000     O
    O   1.0     0.700674     0.208222     0.218507  Biso 1.000000     O
    O   1.0     0.094775     0.319554     0.459217  Biso 1.000000     O
    O   1.0     0.594776     0.319553     0.459217  Biso 1.000000     O
    O   1.0     0.142849     0.316263     0.575835  Biso 1.000000     O
    O   1.0     0.642849     0.316262     0.575835  Biso 1.000000     O
    O   1.0     0.450625     0.718526     0.708288  Biso 1.000000     O
    O   1.0     0.950626     0.718526     0.708288  Biso 1.000000     O
    O   1.0     0.344759     0.959270     0.819564  Biso 1.000000     O
    O   1.0     0.844760     0.959270     0.819564  Biso 1.000000     O
    O   1.0     0.392837     0.075875     0.816219  Biso 1.000000     O
    O   1.0     0.892837     0.075875     0.816219  Biso 1.000000     O
    O   1.0     0.450700     0.281496     0.291716  Biso 1.000000     O
    O   1.0     0.950701     0.281496     0.291716  Biso 1.000000     O
    O   1.0     0.344781     0.040769     0.180440  Biso 1.000000     O
    O   1.0     0.844781     0.040769     0.180439  Biso 1.000000     O
    O   1.0     0.392841     0.924158     0.183759  Biso 1.000000     O
    O   1.0     0.892842     0.924159     0.183759  Biso 1.000000     O
    O   1.0     0.450682     0.291774     0.718505  Biso 1.000000     O
    O   1.0     0.950683     0.291773     0.718505  Biso 1.000000     O
    O   1.0     0.344788     0.180486     0.959206  Biso 1.000000     O
    O   1.0     0.844789     0.180486     0.959206  Biso 1.000000     O
    O   1.0     0.392842     0.183791     0.075839  Biso 1.000000     O
    O   1.0     0.892843     0.183791     0.075839  Biso 1.000000     O
    O   1.0     0.450649     0.708234     0.281491  Biso 1.000000     O
    O   1.0     0.950649     0.708235     0.281491  Biso 1.000000     O
    O   1.0     0.344779     0.819533     0.040781  Biso 1.000000     O
    O   1.0     0.844780     0.819533     0.040781  Biso 1.000000     O
    O   1.0     0.392839     0.816222     0.924150  Biso 1.000000     O
    O   1.0     0.892839     0.816221     0.924149  Biso 1.000000     O
    O   1.0     0.299348     0.781475     0.208247  Biso 1.000000     O
    O   1.0     0.799349     0.781475     0.208246  Biso 1.000000     O
    O   1.0     0.405220     0.540758     0.319545  Biso 1.000000     O
    O   1.0     0.905221     0.540758     0.319545  Biso 1.000000     O
    O   1.0     0.357160     0.424130     0.316216  Biso 1.000000     O
    O   1.0     0.857161     0.424130     0.316216  Biso 1.000000     O
    O   1.0     0.299321     0.218532     0.791749  Biso 1.000000     O
    O   1.0     0.799322     0.218532     0.791749  Biso 1.000000     O
    O   1.0     0.405217     0.459239     0.680476  Biso 1.000000     O
    O   1.0     0.905217     0.459239     0.680476  Biso 1.000000     O
    O   1.0     0.357161     0.575869     0.683796  Biso 1.000000     O
    O   1.0     0.857162     0.575869     0.683797  Biso 1.000000     O
    O   1.0     0.299348     0.208228     0.218510  Biso 1.000000     O
    O   1.0     0.799348     0.208228     0.218510  Biso 1.000000     O
    O   1.0     0.405231     0.319552     0.459220  Biso 1.000000     O
    O   1.0     0.905232     0.319553     0.459220  Biso 1.000000     O
    O   1.0     0.357157     0.316254     0.575840  Biso 1.000000     O
    O   1.0     0.857157     0.316255     0.575840  Biso 1.000000     O
    O   1.0     0.299332     0.791791     0.781487  Biso 1.000000     O
    O   1.0     0.799332     0.791790     0.781488  Biso 1.000000     O
    O   1.0     0.405224     0.680459     0.540778  Biso 1.000000     O
    O   1.0     0.905225     0.680458     0.540779  Biso 1.000000     O
    O   1.0     0.357153     0.683757     0.424158  Biso 1.000000     O
    O   1.0     0.857153     0.683755     0.424159  Biso 1.000000     O
    O   1.0     0.000002     0.426784     0.403002  Biso 1.000000     O
    O   1.0     0.500003     0.426784     0.403002  Biso 1.000000     O
    O   1.0    -0.000004     0.573224     0.596996  Biso 1.000000     O
    O   1.0     0.499997     0.573224     0.596996  Biso 1.000000     O
    O   1.0    -0.000003     0.596998     0.426788  Biso 1.000000     O
    O   1.0     0.499998     0.596997     0.426788  Biso 1.000000     O
    O   1.0     0.000001     0.403010     0.573212  Biso 1.000000     O
    O   1.0     0.500002     0.403010     0.573212  Biso 1.000000     O
    O   1.0     0.249998     0.073230     0.902998  Biso 1.000000     O
    O   1.0     0.749999     0.073230     0.902998  Biso 1.000000     O
    O   1.0     0.250000     0.926778     0.097000  Biso 1.000000     O
    O   1.0     0.750001     0.926778     0.097000  Biso 1.000000     O
    O   1.0     0.249998     0.903016     0.926801  Biso 1.000000     O
    O   1.0     0.749998     0.903016     0.926801  Biso 1.000000     O
    O   1.0     0.250002     0.096991     0.073197  Biso 1.000000     O
    O   1.0     0.750003     0.096991     0.073197  Biso 1.000000     O
   Zn   1.0     0.069878     0.378023     0.357261  Biso 1.000000    Zn
   Zn   1.0     0.569879     0.378023     0.357261  Biso 1.000000    Zn
   Zn   1.0     0.069874     0.621987     0.642740  Biso 1.000000    Zn
   Zn   1.0     0.569875     0.621987     0.642740  Biso 1.000000    Zn
   Zn   1.0     0.069874     0.642730     0.378023  Biso 1.000000    Zn
   Zn   1.0     0.569875     0.642730     0.378022  Biso 1.000000    Zn
   Zn   1.0     0.069877     0.357278     0.621968  Biso 1.000000    Zn
   Zn   1.0     0.569878     0.357278     0.621968  Biso 1.000000    Zn
   Zn   1.0     0.180125     0.121987     0.857258  Biso 1.000000    Zn
   Zn   1.0     0.680125     0.121987     0.857258  Biso 1.000000    Zn
   Zn   1.0     0.180127     0.878011     0.142742  Biso 1.000000    Zn
   Zn   1.0     0.680127     0.878011     0.142742  Biso 1.000000    Zn
   Zn   1.0     0.180119     0.857283     0.878041  Biso 1.000000    Zn
   Zn   1.0     0.680120     0.857283     0.878041  Biso 1.000000    Zn
   Zn   1.0     0.180122     0.142719     0.121961  Biso 1.000000    Zn
   Zn   1.0     0.680122     0.142718     0.121961  Biso 1.000000    Zn
   Zn   1.0     0.430121     0.621986     0.642735  Biso 1.000000    Zn
   Zn   1.0     0.930122     0.621986     0.642736  Biso 1.000000    Zn
   Zn   1.0     0.430125     0.378020     0.357260  Biso 1.000000    Zn
   Zn   1.0     0.930126     0.378020     0.357260  Biso 1.000000    Zn
   Zn   1.0     0.430125     0.357277     0.621976  Biso 1.000000    Zn
   Zn   1.0     0.930126     0.357277     0.621976  Biso 1.000000    Zn
   Zn   1.0     0.430122     0.642731     0.378031  Biso 1.000000    Zn
   Zn   1.0     0.930123     0.642731     0.378031  Biso 1.000000    Zn
   Zn   1.0     0.319874     0.878020     0.142740  Biso 1.000000    Zn
   Zn   1.0     0.819875     0.878020     0.142740  Biso 1.000000    Zn
   Zn   1.0     0.319872     0.121996     0.857256  Biso 1.000000    Zn
   Zn   1.0     0.819873     0.121996     0.857256  Biso 1.000000    Zn
   Zn   1.0     0.319881     0.142724     0.121958  Biso 1.000000    Zn
   Zn   1.0     0.819882     0.142724     0.121958  Biso 1.000000    Zn
   Zn   1.0     0.319878     0.857290     0.878038  Biso 1.000000    Zn
   Zn   1.0     0.819879     0.857289     0.878038  Biso 1.000000    Zn
