#======================================================================

# CRYSTAL DATA

#----------------------------------------------------------------------

data_VESTA_phase_1


_pd_phase_name                         MOF
_cell_length_a                         12.89000
_cell_length_b                         14.79400
_cell_length_c                         15.15800
_cell_angle_alpha                      89.97400
_cell_angle_beta                       89.94500
_cell_angle_gamma                      90.01600
_symmetry_space_group_name_H-M         "P 1"
_symmetry_Int_Tables_number            1

loop_
_symmetry_equiv_pos_as_xyz
   "x, y, z"

loop_
   _atom_site_label
   _atom_site_occupancy
   _atom_site_fract_x
   _atom_site_fract_y
   _atom_site_fract_z
   _atom_site_adp_type
   _atom_site_B_iso_or_equiv
   _atom_site_type_symbol
    H   1.0     0.435697    -0.102912     0.329177  Biso 1.000000     H
    H   1.0     0.303319     0.844751     0.578793  Biso 1.000000     H
    H   1.0     0.397290     0.765642     0.432645  Biso 1.000000     H
    H   1.0     0.442406     0.116321     0.421687  Biso 1.000000     H
    H   1.0     0.313551     0.109939     0.379599  Biso 1.000000     H
    H   1.0     0.419060     0.065881     0.317219  Biso 1.000000     H
    H   1.0     0.063912     0.397494     0.170708  Biso 1.000000     H
    H   1.0     0.197028     0.344663     0.921565  Biso 1.000000     H
    H   1.0     0.102588     0.265839     0.067716  Biso 1.000000     H
    H   1.0     0.057255     0.616456     0.077663  Biso 1.000000     H
    H   1.0     0.186164     0.610399     0.119695  Biso 1.000000     H
    H   1.0     0.080772     0.566334     0.182291  Biso 1.000000     H
    H   1.0     0.563645     0.602931     0.329599  Biso 1.000000     H
    H   1.0     0.696847     0.655931     0.578489  Biso 1.000000     H
    H   1.0     0.601749     0.734580     0.432721  Biso 1.000000     H
    H   1.0     0.558155     0.383897     0.422146  Biso 1.000000     H
    H   1.0     0.687158     0.390377     0.380173  Biso 1.000000     H
    H   1.0     0.581805     0.434191     0.317569  Biso 1.000000     H
    H   1.0     0.936209     0.000000     0.170622  Biso 1.000000     H
    H   1.0     0.803112     0.156072     0.921802  Biso 1.000000     H
    H   1.0     0.897695     0.234415     0.067916  Biso 1.000000     H
    H   1.0     0.942654     0.883813     0.077225  Biso 1.000000     H
    H   1.0     0.813676     0.889756     0.119307  Biso 1.000000     H
    H   1.0     0.918958     0.933577     0.181983  Biso 1.000000     H
    H   1.0     0.564347     0.000000     0.670830  Biso 1.000000     H
    H   1.0     0.696729     0.155286     0.421216  Biso 1.000000     H
    H   1.0     0.602753     0.234393     0.567363  Biso 1.000000     H
    H   1.0     0.557642     0.883715     0.578321  Biso 1.000000     H
    H   1.0     0.686498     0.890097     0.620408  Biso 1.000000     H
    H   1.0     0.580989     0.934154     0.682789  Biso 1.000000     H
    H   1.0     0.936139     0.602540     0.829296  Biso 1.000000     H
    H   1.0     0.803019     0.655374     0.078437  Biso 1.000000     H
    H   1.0     0.897465     0.734195     0.932288  Biso 1.000000     H
    H   1.0     0.942788     0.383578     0.922342  Biso 1.000000     H
    H   1.0     0.813880     0.389637     0.880309  Biso 1.000000     H
    H   1.0     0.919273     0.433700     0.817714  Biso 1.000000     H
    H   1.0     0.436397     0.397104     0.670408  Biso 1.000000     H
    H   1.0     0.303200     0.344105     0.421516  Biso 1.000000     H
    H   1.0     0.398293     0.265455     0.567286  Biso 1.000000     H
    H   1.0     0.441891     0.616137     0.577858  Biso 1.000000     H
    H   1.0     0.312890     0.609660     0.619833  Biso 1.000000     H
    H   1.0     0.418243     0.565845     0.682436  Biso 1.000000     H
    H   1.0     0.063839    -0.102439     0.829387  Biso 1.000000     H
    H   1.0     0.196937     0.843966     0.078207  Biso 1.000000     H
    H   1.0     0.102355     0.765621     0.932093  Biso 1.000000     H
    H   1.0     0.057389     0.116222     0.922782  Biso 1.000000     H
    H   1.0     0.186368     0.110282     0.880705  Biso 1.000000     H
    H   1.0     0.081090     0.066459     0.818025  Biso 1.000000     H
    C   1.0     0.139053     0.953106     0.655001  Biso 1.000000     C
    C   1.0     0.164648     0.638836     0.817622  Biso 1.000000     C
    C   1.0     0.149715     0.648106     0.503585  Biso 1.000000     C
    C   1.0     0.374468    -0.015471     0.427164  Biso 1.000000     C
    C   1.0     0.335904     0.875704     0.520171  Biso 1.000000     C
    C   1.0     0.381960     0.835458     0.448891  Biso 1.000000     C
    C   1.0     0.387952     0.074010     0.384096  Biso 1.000000     C
    C   1.0     0.361056     0.453048     0.844953  Biso 1.000000     C
    C   1.0     0.335657     0.138779     0.682298  Biso 1.000000     C
    C   1.0     0.350230     0.147967    -0.003518  Biso 1.000000     C
    C   1.0     0.125407     0.484771     0.072595  Biso 1.000000     C
    C   1.0     0.164267     0.375740    -0.019995  Biso 1.000000     C
    C   1.0     0.117984     0.335625     0.051297  Biso 1.000000     C
    C   1.0     0.111811     0.574342     0.115367  Biso 1.000000     C
    C   1.0     0.861241     0.547347     0.655002  Biso 1.000000     C
    C   1.0     0.835652     0.861701     0.817784  Biso 1.000000     C
    C   1.0     0.849948     0.851772     0.503694  Biso 1.000000     C
    C   1.0     0.625874     0.515777     0.427351  Biso 1.000000     C
    C   1.0     0.664197     0.624814     0.520057  Biso 1.000000     C
    C   1.0     0.617589     0.664840     0.448958  Biso 1.000000     C
    C   1.0     0.612678     0.426209     0.384496  Biso 1.000000     C
    C   1.0     0.639124     0.047545     0.844982  Biso 1.000000     C
    C   1.0     0.664429     0.361667     0.682085  Biso 1.000000     C
    C   1.0     0.649731     0.351838    -0.003556  Biso 1.000000     C
    C   1.0     0.874535     0.000000     0.072488  Biso 1.000000     C
    C   1.0     0.835816     0.124821    -0.019862  Biso 1.000000     C
    C   1.0     0.882176     0.164696     0.051412  Biso 1.000000     C
    C   1.0     0.888046     0.925814     0.115049  Biso 1.000000     C
    C   1.0     0.860996     0.046928     0.345004  Biso 1.000000     C
    C   1.0     0.835402     0.361207     0.182386  Biso 1.000000     C
    C   1.0     0.850331     0.351927     0.496425  Biso 1.000000     C
    C   1.0     0.625579     0.000000     0.572844  Biso 1.000000     C
    C   1.0     0.664142     0.124332     0.479837  Biso 1.000000     C
    C   1.0     0.618084     0.164578     0.551117  Biso 1.000000     C
    C   1.0     0.612097     0.926025     0.615912  Biso 1.000000     C
    C   1.0     0.638992     0.546991     0.155052  Biso 1.000000     C
    C   1.0     0.664392     0.861258     0.317707  Biso 1.000000     C
    C   1.0     0.649815     0.852070     0.000000  Biso 1.000000     C
    C   1.0     0.874640     0.515264     0.927409  Biso 1.000000     C
    C   1.0     0.835781     0.624296     0.000000  Biso 1.000000     C
    C   1.0     0.882066     0.664410     0.948706  Biso 1.000000     C
    C   1.0     0.888233     0.425693     0.884637  Biso 1.000000     C
    C   1.0     0.138805     0.452690     0.345002  Biso 1.000000     C
    C   1.0     0.164393     0.138337     0.182222  Biso 1.000000     C
    C   1.0     0.150097     0.148264     0.496314  Biso 1.000000     C
    C   1.0     0.374173     0.484259     0.572654  Biso 1.000000     C
    C   1.0     0.335849     0.375222     0.479949  Biso 1.000000     C
    C   1.0     0.382454     0.335195     0.551049  Biso 1.000000     C
    C   1.0     0.387368     0.573826     0.615509  Biso 1.000000     C
    C   1.0     0.360928     0.952496     0.155026  Biso 1.000000     C
    C   1.0     0.335614     0.638375     0.317924  Biso 1.000000     C
    C   1.0     0.350314     0.648196     0.000000  Biso 1.000000     C
    C   1.0     0.125512    -0.015488     0.927521  Biso 1.000000     C
    C   1.0     0.164232     0.875216     0.000000  Biso 1.000000     C
    C   1.0     0.117874     0.835341     0.948597  Biso 1.000000     C
    C   1.0     0.112000     0.074222     0.884960  Biso 1.000000     C
    N   1.0     0.095250     0.888621     0.680240  Biso 1.000000     N
    N   1.0     0.107771     0.682107     0.774668  Biso 1.000000     N
    N   1.0     0.107751     0.690304     0.558246  Biso 1.000000     N
    N   1.0     0.405774     0.904863     0.391304  Biso 1.000000     N
    N   1.0     0.331750    -0.031632     0.506378  Biso 1.000000     N
    N   1.0     0.404765     0.388541     0.819761  Biso 1.000000     N
    N   1.0     0.392434     0.182077     0.725308  Biso 1.000000     N
    N   1.0     0.392260     0.190108     0.941784  Biso 1.000000     N
    N   1.0     0.093988     0.405152     0.108615  Biso 1.000000     N
    N   1.0     0.168384     0.468444     0.993551  Biso 1.000000     N
    N   1.0     0.904911     0.611780     0.680406  Biso 1.000000     N
    N   1.0     0.892545     0.818273     0.774940  Biso 1.000000     N
    N   1.0     0.892152     0.809940     0.558458  Biso 1.000000     N
    N   1.0     0.593950     0.595313     0.391561  Biso 1.000000     N
    N   1.0     0.668837     0.532154     0.506334  Biso 1.000000     N
    N   1.0     0.595355     0.111963     0.819663  Biso 1.000000     N
    N   1.0     0.607434     0.318307     0.724964  Biso 1.000000     N
    N   1.0     0.607632     0.310013     0.941656  Biso 1.000000     N
    N   1.0     0.906068     0.094999     0.108588  Biso 1.000000     N
    N   1.0     0.831581     0.000000     0.993546  Biso 1.000000     N
    N   1.0     0.904795     0.111416     0.319770  Biso 1.000000     N
    N   1.0     0.892272     0.317927     0.225338  Biso 1.000000     N
    N   1.0     0.892298     0.309733     0.441761  Biso 1.000000     N
    N   1.0     0.594271     0.095172     0.608703  Biso 1.000000     N
    N   1.0     0.668299     0.000000     0.493631  Biso 1.000000     N
    N   1.0     0.595284     0.611497     0.180247  Biso 1.000000     N
    N   1.0     0.607611     0.817959     0.274701  Biso 1.000000     N
    N   1.0     0.607785     0.809931     0.058223  Biso 1.000000     N
    N   1.0     0.906061     0.594883     0.891389  Biso 1.000000     N
    N   1.0     0.831661     0.531593     0.006451  Biso 1.000000     N
    N   1.0     0.095134     0.388255     0.319603  Biso 1.000000     N
    N   1.0     0.107504     0.181767     0.225068  Biso 1.000000     N
    N   1.0     0.107896     0.190095     0.441548  Biso 1.000000     N
    N   1.0     0.406092     0.404722     0.608446  Biso 1.000000     N
    N   1.0     0.331210     0.467882     0.493670  Biso 1.000000     N
    N   1.0     0.404692     0.888074     0.180344  Biso 1.000000     N
    N   1.0     0.392616     0.681725     0.275042  Biso 1.000000     N
    N   1.0     0.392413     0.690023     0.058352  Biso 1.000000     N
    N   1.0     0.093980     0.905037     0.891422  Biso 1.000000     N
    N   1.0     0.168467    -0.032047     0.006462  Biso 1.000000     N
   Cd   1.0     0.232129     0.062343     0.592889  Biso 1.000000    Cd
   Cd   1.0     0.268203     0.562350     0.907007  Biso 1.000000    Cd
   Cd   1.0     0.768383     0.438202     0.592815  Biso 1.000000    Cd
   Cd   1.0     0.731914     0.938282     0.907048  Biso 1.000000    Cd
   Cd   1.0     0.767918     0.937693     0.407118  Biso 1.000000    Cd
   Cd   1.0     0.731844     0.437688     0.092999  Biso 1.000000    Cd
   Cd   1.0     0.231663     0.561835     0.407191  Biso 1.000000    Cd
   Cd   1.0     0.268134     0.061756     0.092960  Biso 1.000000    Cd
   Cd   1.0     0.000083     0.750236     0.665566  Biso 1.000000    Cd
   Cd   1.0     0.499917     0.250218     0.834467  Biso 1.000000    Cd
   Cd   1.0    -0.000047     0.249800     0.334441  Biso 1.000000    Cd
   Cd   1.0     0.500130     0.749819     0.165540  Biso 1.000000    Cd
