#======================================================================

# CRYSTAL DATA

#----------------------------------------------------------------------

data_VESTA_phase_1


_pd_phase_name                         MOF
_cell_length_a                         12.51100
_cell_length_b                         15.49700
_cell_length_c                         25.27800
_cell_angle_alpha                      107.90200
_cell_angle_beta                       104.32500
_cell_angle_gamma                      90.00300
_symmetry_space_group_name_H-M         "P 1"
_symmetry_Int_Tables_number            1

loop_
_symmetry_equiv_pos_as_xyz
   "x, y, z"

loop_
   _atom_site_label
   _atom_site_occupancy
   _atom_site_fract_x
   _atom_site_fract_y
   _atom_site_fract_z
   _atom_site_adp_type
   _atom_site_B_iso_or_equiv
   _atom_site_type_symbol
    H   1.0     0.579815     0.134269     0.160896  Biso 1.000000     H
    H   1.0     0.923652     0.934694     0.248938  Biso 1.000000     H
    H   1.0     0.094678     0.016308     0.288662  Biso 1.000000     H
    H   1.0     0.413112     0.914358     0.331217  Biso 1.000000     H
    H   1.0     0.138916     0.813091     0.375351  Biso 1.000000     H
    H   1.0     0.008689     0.894807     0.415846  Biso 1.000000     H
    H   1.0     0.669888     0.913959     0.332906  Biso 1.000000     H
    H   1.0     0.239831     0.857479     0.081202  Biso 1.000000     H
    H   1.0     0.068630     0.896279     0.040102  Biso 1.000000     H
    H   1.0     0.085946     0.031750     0.172279  Biso 1.000000     H
    H   1.0     0.826084     0.308849     0.252171  Biso 1.000000     H
    H   1.0     0.695805     0.270026     0.293533  Biso 1.000000     H
    H   1.0     0.420687     0.416788     0.335021  Biso 1.000000     H
    H   1.0     0.738134     0.561714     0.375468  Biso 1.000000     H
    H   1.0     0.909768     0.521638     0.416655  Biso 1.000000     H
    H   1.0     0.164555     0.413456     0.334278  Biso 1.000000     H
    H   1.0     0.340556     0.232281     0.084835  Biso 1.000000     H
    H   1.0     0.471924     0.150914     0.045283  Biso 1.000000     H
    H   1.0     0.416755     0.358454     0.825890  Biso 1.000000     H
    H   1.0     0.675501     0.559237     0.748937  Biso 1.000000     H
    H   1.0     0.805649     0.479008     0.708005  Biso 1.000000     H
    H   1.0     0.080354     0.583088     0.665688  Biso 1.000000     H
    H   1.0     0.762668     0.686746     0.624708  Biso 1.000000     H
    H   1.0     0.591352     0.606015     0.584135  Biso 1.000000     H
    H   1.0     0.337013     0.581862     0.667089  Biso 1.000000     H
    H   1.0     0.160120     0.645768     0.916208  Biso 1.000000     H
    H   1.0     0.029218     0.605120     0.956612  Biso 1.000000     H
    H   1.0     0.924252     0.474329     0.841047  Biso 1.000000     H
    H   1.0     0.576454     0.186902     0.750253  Biso 1.000000     H
    H   1.0     0.405312     0.228664     0.709783  Biso 1.000000     H
    H   1.0     0.087130     0.083934     0.667953  Biso 1.000000     H
    H   1.0     0.361481     0.938118     0.624345  Biso 1.000000     H
    H   1.0     0.492036     0.979256     0.583505  Biso 1.000000     H
    H   1.0     0.830754     0.081858     0.666714  Biso 1.000000     H
    H   1.0     0.260886     0.274462     0.918659  Biso 1.000000     H
    H   1.0     0.431661     0.355060     0.959254  Biso 1.000000     H
    H   1.0     0.850502     0.110702     0.202731  Biso 1.000000     H
    H   1.0     0.653439     0.409403     0.797476  Biso 1.000000     H
    H   1.0     0.315030     0.055973     0.130781  Biso 1.000000     H
    H   1.0     0.189900     0.422637     0.869362  Biso 1.000000     H
    H   1.0     0.519232     0.770646     0.538011  Biso 1.000000     H
    H   1.0     0.981395     0.730871     0.462047  Biso 1.000000     H
    H   1.0     0.749232     0.694207     0.501796  Biso 1.000000     H
    H   1.0     0.247407     0.806129     0.498133  Biso 1.000000     H
    H   1.0     0.496913     0.754379    -0.000703  Biso 1.000000     H
    H   1.0     0.751645     0.749267    -0.002978  Biso 1.000000     H
    H   1.0     0.003580     0.254998     0.000705  Biso 1.000000     H
    H   1.0     0.749058     0.252501     0.003514  Biso 1.000000     H
    C   1.0     0.706925     0.947119     0.238829  Biso 1.000000     C
    C   1.0     0.789768     0.928233     0.286870  Biso 1.000000     C
    C   1.0     0.901403     0.926769     0.286316  Biso 1.000000     C
    C   1.0     0.982470     0.914710     0.332359  Biso 1.000000     C
    C   1.0     0.100708     0.914754     0.332055  Biso 1.000000     C
    C   1.0     0.145607     0.970320     0.307019  Biso 1.000000     C
    C   1.0     0.256789     0.969030     0.305541  Biso 1.000000     C
    C   1.0     0.300054     0.025037     0.275328  Biso 1.000000     C
    C   1.0     0.326262     0.914431     0.331439  Biso 1.000000     C
    C   1.0     0.283221     0.859945     0.357574  Biso 1.000000     C
    C   1.0     0.356638     0.803840     0.387662  Biso 1.000000     C
    C   1.0     0.170892     0.858981     0.356722  Biso 1.000000     C
    C   1.0     0.948348     0.902344     0.378587  Biso 1.000000     C
    C   1.0     0.836344     0.900243     0.378420  Biso 1.000000     C
    C   1.0     0.756759     0.914159     0.332740  Biso 1.000000     C
    C   1.0     0.802204     0.881041     0.426597  Biso 1.000000     C
    C   1.0     0.457163     0.883382     0.091821  Biso 1.000000     C
    C   1.0     0.375345     0.814417     0.044197  Biso 1.000000     C
    C   1.0     0.263528     0.811864     0.044364  Biso 1.000000     C
    C   1.0     0.018735     0.831361     0.021987  Biso 1.000000     C
    C   1.0     0.907165     0.830849     0.022613  Biso 1.000000     C
    C   1.0     0.863006     0.917248     0.051667  Biso 1.000000     C
    C   1.0     0.032994     0.283427     0.241831  Biso 1.000000     C
    C   1.0     0.998434     0.352621     0.289280  Biso 1.000000     C
    C   1.0     0.886351     0.354834     0.288962  Biso 1.000000     C
    C   1.0     0.851757     0.415314     0.334404  Biso 1.000000     C
    C   1.0     0.733322     0.415829     0.334536  Biso 1.000000     C
    C   1.0     0.663629     0.334966     0.311196  Biso 1.000000     C
    C   1.0     0.551266     0.335340     0.310321  Biso 1.000000     C
    C   1.0     0.477929     0.249015     0.281668  Biso 1.000000     C
    C   1.0     0.507578     0.416516     0.334898  Biso 1.000000     C
    C   1.0     0.576439     0.497391     0.359341  Biso 1.000000     C
    C   1.0     0.532119     0.584059     0.387965  Biso 1.000000     C
    C   1.0     0.687754     0.497039     0.358069  Biso 1.000000     C
    C   1.0     0.932513     0.475075     0.379817  Biso 1.000000     C
    C   1.0     0.044242     0.475908     0.379424  Biso 1.000000     C
    C   1.0     0.077617     0.413991     0.334325  Biso 1.000000     C
    C   1.0     0.126751     0.544489     0.426979  Biso 1.000000     C
    C   1.0     0.133848     0.219861     0.094530  Biso 1.000000     C
    C   1.0     0.169033     0.239616     0.046794  Biso 1.000000     C
    C   1.0     0.281321     0.240852     0.047543  Biso 1.000000     C
    C   1.0     0.504979     0.197024     0.027155  Biso 1.000000     C
    C   1.0     0.617689     0.197956     0.028729  Biso 1.000000     C
    C   1.0     0.690673     0.141300     0.058528  Biso 1.000000     C
    C   1.0     0.468873     0.544192     0.759432  Biso 1.000000     C
    C   1.0     0.503150     0.565866     0.711935  Biso 1.000000     C
    C   1.0     0.615148     0.568179     0.712130  Biso 1.000000     C
    C   1.0     0.649538     0.582637     0.666530  Biso 1.000000     C
    C   1.0     0.767843     0.582816     0.666318  Biso 1.000000     C
    C   1.0     0.837666     0.525836     0.690020  Biso 1.000000     C
    C   1.0     0.949993     0.527003     0.690855  Biso 1.000000     C
    C   1.0     0.023137     0.469688     0.719831  Biso 1.000000     C
    C   1.0     0.993514     0.582979     0.665856  Biso 1.000000     C
    C   1.0     0.924409     0.638812     0.641011  Biso 1.000000     C
    C   1.0     0.968083     0.696152     0.611832  Biso 1.000000     C
    C   1.0     0.813181     0.639844     0.642362  Biso 1.000000     C
    C   1.0     0.568761     0.596733     0.621095  Biso 1.000000     C
    C   1.0     0.457138     0.598392     0.621674  Biso 1.000000     C
    C   1.0     0.423886     0.582061     0.666915  Biso 1.000000     C
    C   1.0     0.374619     0.619472     0.574232  Biso 1.000000     C
    C   1.0     0.366580     0.624156     0.906105  Biso 1.000000     C
    C   1.0     0.331553     0.692022     0.953775  Biso 1.000000     C
    C   1.0     0.219336     0.692364     0.953201  Biso 1.000000     C
    C   1.0     0.995981     0.669582     0.974156  Biso 1.000000     C
    C   1.0     0.883234     0.669026     0.972505  Biso 1.000000     C
    C   1.0     0.810242     0.582380     0.943042  Biso 1.000000     C
    C   1.0     0.793400     0.209409     0.760701  Biso 1.000000     C
    C   1.0     0.710630     0.142369     0.712547  Biso 1.000000     C
    C   1.0     0.598893     0.141431     0.712956  Biso 1.000000     C
    C   1.0     0.517941     0.083070     0.666886  Biso 1.000000     C
    C   1.0     0.399556     0.083400     0.667057  Biso 1.000000     C
    C   1.0     0.354478     0.164200     0.691725  Biso 1.000000     C
    C   1.0     0.243296     0.164433     0.693224  Biso 1.000000     C
    C   1.0     0.200003     0.250831     0.723257  Biso 1.000000     C
    C   1.0     0.173963     0.083772     0.667696  Biso 1.000000     C
    C   1.0     0.217146     0.002954     0.641924  Biso 1.000000     C
    C   1.0     0.143803     0.916553     0.612408  Biso 1.000000     C
    C   1.0     0.329482     0.002788     0.642727  Biso 1.000000     C
    C   1.0     0.552307     0.024242     0.620778  Biso 1.000000     C
    C   1.0     0.664385     0.022379     0.621072  Biso 1.000000     C
    C   1.0     0.743831     0.082212     0.666778  Biso 1.000000     C
    C   1.0     0.698792     0.954862     0.572980  Biso 1.000000     C
    C   1.0     0.043358     0.289538     0.907667  Biso 1.000000     C
    C   1.0     0.125208     0.269262     0.955684  Biso 1.000000     C
    C   1.0     0.237115     0.266703     0.955702  Biso 1.000000     C
    C   1.0     0.481745     0.308986     0.977945  Biso 1.000000     C
    C   1.0     0.593346     0.307738     0.977343  Biso 1.000000     C
    C   1.0     0.637351     0.364149     0.947754  Biso 1.000000     C
    C   1.0     0.409863     0.753594    -0.000894  Biso 1.000000     C
    C   1.0     0.183739     0.751547    -0.001302  Biso 1.000000     C
    C   1.0     0.065119     0.750741    -0.001667  Biso 1.000000     C
    C   1.0     0.838780     0.749716    -0.002619  Biso 1.000000     C
    C   1.0     0.090701     0.254624     0.001040  Biso 1.000000     C
    C   1.0     0.316932     0.253427     0.001792  Biso 1.000000     C
    C   1.0     0.435585     0.253046     0.002268  Biso 1.000000     C
    C   1.0     0.661942     0.252725     0.003193  Biso 1.000000     C
    O   1.0     0.735452     0.940312     0.192784  Biso 1.000000     O
    O   1.0     0.613409     0.970898     0.247296  Biso 1.000000     O
    O   1.0     0.699959     0.858967     0.418726  Biso 1.000000     O
    O   1.0     0.877619     0.885847     0.471995  Biso 1.000000     O
    O   1.0     0.310436     0.742152     0.400225  Biso 1.000000     O
    O   1.0     0.460841     0.822635     0.400035  Biso 1.000000     O
    O   1.0     0.392705     0.007204     0.263796  Biso 1.000000     O
    O   1.0     0.240303     0.085729     0.261902  Biso 1.000000     O
    O   1.0     0.551598     0.896878     0.083887  Biso 1.000000     O
    O   1.0     0.426363     0.925628     0.136805  Biso 1.000000     O
    O   1.0     0.920103     0.991706     0.062639  Biso 1.000000     O
    O   1.0     0.772005     0.911133     0.064932  Biso 1.000000     O
    O   1.0     0.597935     0.080824     0.172757  Biso 1.000000     O
    O   1.0     0.957608     0.241097     0.196694  Biso 1.000000     O
    O   1.0     0.135317     0.269776     0.250015  Biso 1.000000     O
    O   1.0     0.220426     0.559099     0.418493  Biso 1.000000     O
    O   1.0     0.097362     0.585507     0.472554  Biso 1.000000     O
    O   1.0     0.589665     0.658383     0.399150  Biso 1.000000     O
    O   1.0     0.440347     0.577964     0.400505  Biso 1.000000     O
    O   1.0     0.373731     0.255414     0.268373  Biso 1.000000     O
    O   1.0     0.523655     0.174370     0.271033  Biso 1.000000     O
    O   1.0     0.031878     0.195684     0.085760  Biso 1.000000     O
    O   1.0     0.208134     0.226286     0.140618  Biso 1.000000     O
    O   1.0     0.643852     0.080394     0.071564  Biso 1.000000     O
    O   1.0     0.794928     0.158746     0.070042  Biso 1.000000     O
    O   1.0     0.092132     0.085544     0.160754  Biso 1.000000     O
    O   1.0     0.544538     0.547010     0.804458  Biso 1.000000     O
    O   1.0     0.366567     0.522271     0.751311  Biso 1.000000     O
    O   1.0     0.281337     0.643113     0.583041  Biso 1.000000     O
    O   1.0     0.403411     0.614481     0.528460  Biso 1.000000     O
    O   1.0     0.909586     0.758363     0.599903  Biso 1.000000     O
    O   1.0     0.060074     0.677873     0.599579  Biso 1.000000     O
    O   1.0     0.127404     0.488941     0.732859  Biso 1.000000     O
    O   1.0     0.977093     0.406431     0.730973  Biso 1.000000     O
    O   1.0     0.468320     0.608082     0.914879  Biso 1.000000     O
    O   1.0     0.292201     0.584935     0.859968  Biso 1.000000     O
    O   1.0     0.856822     0.508199     0.930529  Biso 1.000000     O
    O   1.0     0.706019     0.588483     0.931162  Biso 1.000000     O
    O   1.0     0.410482     0.423778     0.837718  Biso 1.000000     O
    O   1.0     0.764802     0.248284     0.806780  Biso 1.000000     O
    O   1.0     0.886874     0.225143     0.752307  Biso 1.000000     O
    O   1.0     0.801034     0.940622     0.581040  Biso 1.000000     O
    O   1.0     0.623560     0.914281     0.527469  Biso 1.000000     O
    O   1.0     0.190066     0.842273     0.600395  Biso 1.000000     O
    O   1.0     0.039535     0.922718     0.599948  Biso 1.000000     O
    O   1.0     0.107708     0.244619     0.735178  Biso 1.000000     O
    O   1.0     0.259435     0.325001     0.736199  Biso 1.000000     O
    O   1.0     0.948838     0.310936     0.915453  Biso 1.000000     O
    O   1.0     0.074119     0.286182     0.862600  Biso 1.000000     O
    O   1.0     0.580126     0.427249     0.936352  Biso 1.000000     O
    O   1.0     0.728370     0.344462     0.934577  Biso 1.000000     O
    O   1.0     0.906356     0.408989     0.829312  Biso 1.000000     O
    O   1.0     0.842776     0.073116     0.163083  Biso 1.000000     O
    O   1.0     0.660513     0.411472     0.837049  Biso 1.000000     O
    O   1.0     0.346955     0.093850     0.170365  Biso 1.000000     O
    O   1.0     0.157013     0.421624     0.830028  Biso 1.000000     O
    O   1.0     0.499575     0.747573     0.496217  Biso 1.000000     O
    O   1.0     0.002724     0.752096     0.503867  Biso 1.000000     O
    O   1.0     0.750359     0.755810     0.499832  Biso 1.000000     O
    O   1.0     0.250296     0.744469     0.500006  Biso 1.000000     O
   Sc   1.0     0.485000     0.041284     0.211889  Biso 1.000000    Sc
   Sc   1.0     0.690717     0.994135     0.123677  Biso 1.000000    Sc
   Sc   1.0     0.603319     0.794150     0.455532  Biso 1.000000    Sc
   Sc   1.0     0.233895     0.172199     0.209721  Biso 1.000000    Sc
   Sc   1.0     0.939875     0.125145     0.121648  Biso 1.000000    Sc
   Sc   1.0     0.353581     0.661802     0.456140  Biso 1.000000    Sc
   Sc   1.0     0.267768     0.462660     0.790198  Biso 1.000000    Sc
   Sc   1.0     0.561733     0.503311     0.878406  Biso 1.000000    Sc
   Sc   1.0     0.147629     0.706207     0.544371  Biso 1.000000    Sc
   Sc   1.0     0.016871     0.329716     0.788550  Biso 1.000000    Sc
   Sc   1.0     0.810952     0.370334     0.876819  Biso 1.000000    Sc
   Sc   1.0     0.897468     0.838504     0.544105  Biso 1.000000    Sc
