#======================================================================

# CRYSTAL DATA

#----------------------------------------------------------------------

data_VESTA_phase_1


_pd_phase_name                         MOF
_cell_length_a                         16.46000
_cell_length_b                         19.03700
_cell_length_c                         18.29600
_cell_angle_alpha                      90.00000
_cell_angle_beta                       90.00000
_cell_angle_gamma                      90.00000
_symmetry_space_group_name_H-M         "P 1"
_symmetry_Int_Tables_number            1

loop_
_symmetry_equiv_pos_as_xyz
   "x, y, z"

loop_
   _atom_site_label
   _atom_site_occupancy
   _atom_site_fract_x
   _atom_site_fract_y
   _atom_site_fract_z
   _atom_site_adp_type
   _atom_site_B_iso_or_equiv
   _atom_site_type_symbol
    H   1.0     0.350134     0.400645     0.653628  Biso 1.000000     H
    H   1.0     0.866091     0.400647     0.653626  Biso 1.000000     H
    H   1.0     0.063592     0.356768     0.744740  Biso 1.000000     H
    H   1.0     0.579551     0.356769     0.744756  Biso 1.000000     H
    H   1.0     0.490014     0.233054     0.742417  Biso 1.000000     H
    H   1.0     0.000000     0.233053     0.742400  Biso 1.000000     H
    H   1.0     0.408720     0.165844     0.665871  Biso 1.000000     H
    H   1.0     0.924678     0.165845     0.665860  Biso 1.000000     H
    H   1.0     0.292676     0.082667     0.659624  Biso 1.000000     H
    H   1.0     0.808635     0.082668     0.659617  Biso 1.000000     H
    H   1.0     0.125828     0.252280     0.696157  Biso 1.000000     H
    H   1.0     0.641788     0.252281     0.696156  Biso 1.000000     H
    H   1.0     0.241295     0.336220     0.706926  Biso 1.000000     H
    H   1.0     0.757255     0.336220     0.706921  Biso 1.000000     H
    H   1.0     0.158773     0.489417     0.570333  Biso 1.000000     H
    H   1.0     0.674736     0.489416     0.570334  Biso 1.000000     H
    H   1.0     0.458936     0.600653     0.525912  Biso 1.000000     H
    H   1.0     0.974901     0.600662     0.525913  Biso 1.000000     H
    H   1.0     0.039914     0.602807     0.401292  Biso 1.000000     H
    H   1.0     0.555870     0.602797     0.401290  Biso 1.000000     H
    H   1.0     0.108729     0.519552     0.328796  Biso 1.000000     H
    H   1.0     0.624688     0.519545     0.328796  Biso 1.000000     H
    H   1.0     0.224314     0.501344     0.243100  Biso 1.000000     H
    H   1.0     0.740274     0.501340     0.243100  Biso 1.000000     H
    H   1.0     0.392309     0.512031     0.422382  Biso 1.000000     H
    H   1.0     0.908270     0.512033     0.422382  Biso 1.000000     H
    H   1.0     0.278143     0.536501     0.508398  Biso 1.000000     H
    H   1.0     0.794102     0.536501     0.508397  Biso 1.000000     H
    H   1.0     0.163812     0.585644     0.152756  Biso 1.000000     H
    H   1.0     0.679772     0.585643     0.152757  Biso 1.000000     H
    H   1.0     0.450638     0.629375     0.244549  Biso 1.000000     H
    H   1.0     0.966600     0.629375     0.244549  Biso 1.000000     H
    H   1.0     0.024225     0.753095     0.242108  Biso 1.000000     H
    H   1.0     0.540185     0.753095     0.242109  Biso 1.000000     H
    H   1.0     0.104948     0.820276     0.165311  Biso 1.000000     H
    H   1.0     0.620908     0.820275     0.165313  Biso 1.000000     H
    H   1.0     0.220860     0.903601     0.158476  Biso 1.000000     H
    H   1.0     0.736820     0.903600     0.158477  Biso 1.000000     H
    H   1.0     0.388227     0.734161     0.194000  Biso 1.000000     H
    H   1.0     0.904187     0.734161     0.194000  Biso 1.000000     H
    H   1.0     0.272911     0.650136     0.205616  Biso 1.000000     H
    H   1.0     0.788871     0.650135     0.205616  Biso 1.000000     H
    H   1.0     0.355982     0.496248     0.069668  Biso 1.000000     H
    H   1.0     0.871945     0.496249     0.069668  Biso 1.000000     H
    H   1.0     0.056564     0.386140     0.025166  Biso 1.000000     H
    H   1.0     0.572523     0.386140     0.025165  Biso 1.000000     H
    H   1.0     0.474441     0.383669     0.902282  Biso 1.000000     H
    H   1.0     0.990405     0.383670     0.902282  Biso 1.000000     H
    H   1.0     0.405334     0.466528     0.829981  Biso 1.000000     H
    H   1.0     0.921297     0.466530     0.829981  Biso 1.000000     H
    H   1.0     0.289910     0.485016     0.744193  Biso 1.000000     H
    H   1.0     0.805873     0.485018     0.744193  Biso 1.000000     H
    H   1.0     0.121583     0.473861     0.923209  Biso 1.000000     H
    H   1.0     0.637546     0.473860     0.923210  Biso 1.000000     H
    H   1.0     0.235575     0.449079     0.000000  Biso 1.000000     H
    H   1.0     0.751539     0.449078     0.000000  Biso 1.000000     H
    H   1.0     0.163219     0.894020     0.654114  Biso 1.000000     H
    H   1.0     0.679180     0.894022     0.654116  Biso 1.000000     H
    H   1.0     0.449706     0.850431     0.745287  Biso 1.000000     H
    H   1.0     0.965669     0.850432     0.745294  Biso 1.000000     H
    H   1.0     0.023265     0.726664     0.743174  Biso 1.000000     H
    H   1.0     0.539223     0.726663     0.743167  Biso 1.000000     H
    H   1.0     0.104158     0.659515     0.666219  Biso 1.000000     H
    H   1.0     0.620118     0.659516     0.666214  Biso 1.000000     H
    H   1.0     0.220076     0.576175     0.659344  Biso 1.000000     H
    H   1.0     0.736037     0.576176     0.659341  Biso 1.000000     H
    H   1.0     0.387392     0.745403     0.695977  Biso 1.000000     H
    H   1.0     0.903352     0.745404     0.695978  Biso 1.000000     H
    H   1.0     0.272052     0.829446     0.707661  Biso 1.000000     H
    H   1.0     0.788011     0.829448     0.707661  Biso 1.000000     H
    H   1.0     0.354964    -0.003542     0.570697  Biso 1.000000     H
    H   1.0     0.870928    -0.003543     0.570697  Biso 1.000000     H
    H   1.0     0.055162     0.107167     0.526249  Biso 1.000000     H
    H   1.0     0.571119     0.107169     0.526248  Biso 1.000000     H
    H   1.0     0.474420     0.109135     0.401483  Biso 1.000000     H
    H   1.0     0.990385     0.109133     0.401483  Biso 1.000000     H
    H   1.0     0.405759     0.026042     0.329128  Biso 1.000000     H
    H   1.0     0.921722     0.026039     0.329128  Biso 1.000000     H
    H   1.0     0.290406     0.007646     0.243219  Biso 1.000000     H
    H   1.0     0.806369     0.007645     0.243219  Biso 1.000000     H
    H   1.0     0.121935     0.018302     0.422151  Biso 1.000000     H
    H   1.0     0.637899     0.018307     0.422152  Biso 1.000000     H
    H   1.0     0.235844     0.042974     0.508377  Biso 1.000000     H
    H   1.0     0.751809     0.042976     0.508377  Biso 1.000000     H
    H   1.0     0.350747     0.092101     0.153055  Biso 1.000000     H
    H   1.0     0.866705     0.092100     0.153055  Biso 1.000000     H
    H   1.0     0.064672     0.135801     0.243275  Biso 1.000000     H
    H   1.0     0.580632     0.135801     0.243284  Biso 1.000000     H
    H   1.0     0.491304     0.259653     0.241080  Biso 1.000000     H
    H   1.0     0.000000     0.259653     0.241071  Biso 1.000000     H
    H   1.0     0.409754     0.326876     0.164806  Biso 1.000000     H
    H   1.0     0.925713     0.326875     0.164801  Biso 1.000000     H
    H   1.0     0.293745     0.410109     0.158576  Biso 1.000000     H
    H   1.0     0.809705     0.410108     0.158573  Biso 1.000000     H
    H   1.0     0.126853     0.240646     0.195653  Biso 1.000000     H
    H   1.0     0.642813     0.240646     0.195652  Biso 1.000000     H
    H   1.0     0.242283     0.156665     0.206416  Biso 1.000000     H
    H   1.0     0.758243     0.156665     0.206414  Biso 1.000000     H
    H   1.0     0.159638     0.990450     0.069374  Biso 1.000000     H
    H   1.0     0.675601     0.990450     0.069376  Biso 1.000000     H
    H   1.0     0.459940     0.879137     0.024597  Biso 1.000000     H
    H   1.0     0.975904     0.879129     0.024598  Biso 1.000000     H
    H   1.0     0.039368     0.876773     0.902009  Biso 1.000000     H
    H   1.0     0.555324     0.876783     0.902007  Biso 1.000000     H
    H   1.0     0.108114     0.960233     0.829752  Biso 1.000000     H
    H   1.0     0.624074     0.960240     0.829752  Biso 1.000000     H
    H   1.0     0.223714     0.978575     0.744103  Biso 1.000000     H
    H   1.0     0.739674     0.978579     0.744103  Biso 1.000000     H
    H   1.0     0.391679     0.967605     0.923393  Biso 1.000000     H
    H   1.0     0.907639     0.967603     0.923392  Biso 1.000000     H
    H   1.0     0.277497     0.942989     0.000000  Biso 1.000000     H
    H   1.0     0.793457     0.942989     0.000000  Biso 1.000000     H
    C   1.0     0.400235     0.372731     0.678682  Biso 1.000000     C
    C   1.0     0.916194     0.372732     0.678676  Biso 1.000000     C
    C   1.0     0.518200     0.347114     0.725844  Biso 1.000000     C
    C   1.0     0.000000     0.347113     0.725831  Biso 1.000000     C
    C   1.0     0.474446     0.285928     0.725496  Biso 1.000000     C
    C   1.0     0.990408     0.285928     0.725482  Biso 1.000000     C
    C   1.0     0.332101     0.255838     0.687213  Biso 1.000000     C
    C   1.0     0.848060     0.255838     0.687205  Biso 1.000000     C
    C   1.0     0.346773     0.184743     0.673120  Biso 1.000000     C
    C   1.0     0.862732     0.184744     0.673112  Biso 1.000000     C
    C   1.0     0.281586     0.138386     0.668330  Biso 1.000000     C
    C   1.0     0.797545     0.138387     0.668324  Biso 1.000000     C
    C   1.0     0.201713     0.162389     0.677117  Biso 1.000000     C
    C   1.0     0.717672     0.162390     0.677114  Biso 1.000000     C
    C   1.0     0.188002     0.234051     0.689611  Biso 1.000000     C
    C   1.0     0.703962     0.234051     0.689608  Biso 1.000000     C
    C   1.0     0.252585     0.280974     0.694907  Biso 1.000000     C
    C   1.0     0.768545     0.280974     0.694902  Biso 1.000000     C
    C   1.0     0.132289     0.111359     0.676041  Biso 1.000000     C
    C   1.0     0.648248     0.111359     0.676039  Biso 1.000000     C
    C   1.0     0.113295     0.520294     0.542095  Biso 1.000000     C
    C   1.0     0.629256     0.520291     0.542095  Biso 1.000000     C
    C   1.0     0.002297     0.577804     0.516233  Biso 1.000000     C
    C   1.0     0.518255     0.577797     0.516232  Biso 1.000000     C
    C   1.0     0.049241     0.579258     0.454469  Biso 1.000000     C
    C   1.0     0.565198     0.579250     0.454468  Biso 1.000000     C
    C   1.0     0.186608     0.530179     0.423223  Biso 1.000000     C
    C   1.0     0.702567     0.530175     0.423223  Biso 1.000000     C
    C   1.0     0.171066     0.520237     0.348783  Biso 1.000000     C
    C   1.0     0.687026     0.520232     0.348783  Biso 1.000000     C
    C   1.0     0.235725     0.509760     0.301056  Biso 1.000000     C
    C   1.0     0.751685     0.509756     0.301056  Biso 1.000000     C
    C   1.0     0.315686     0.507183     0.327266  Biso 1.000000     C
    C   1.0     0.831646     0.507181     0.327266  Biso 1.000000     C
    C   1.0     0.330091     0.515085     0.402355  Biso 1.000000     C
    C   1.0     0.846051     0.515085     0.402355  Biso 1.000000     C
    C   1.0     0.266093     0.527760     0.450471  Biso 1.000000     C
    C   1.0     0.782052     0.527759     0.450471  Biso 1.000000     C
    C   1.0     0.384507     0.496080     0.274768  Biso 1.000000     C
    C   1.0     0.900468     0.496080     0.274768  Biso 1.000000     C
    C   1.0     0.113788     0.613504     0.178001  Biso 1.000000     C
    C   1.0     0.629748     0.613504     0.178001  Biso 1.000000     C
    C   1.0    -0.004027     0.639051     0.225499  Biso 1.000000     C
    C   1.0     0.511933     0.639050     0.225499  Biso 1.000000     C
    C   1.0     0.039720     0.700237     0.225107  Biso 1.000000     C
    C   1.0     0.555680     0.700236     0.225108  Biso 1.000000     C
    C   1.0     0.181873     0.730416     0.186333  Biso 1.000000     C
    C   1.0     0.697833     0.730415     0.186334  Biso 1.000000     C
    C   1.0     0.166977     0.801474     0.172262  Biso 1.000000     C
    C   1.0     0.682937     0.801474     0.172263  Biso 1.000000     C
    C   1.0     0.232056     0.847890     0.167115  Biso 1.000000     C
    C   1.0     0.748016     0.847890     0.167116  Biso 1.000000     C
    C   1.0     0.312034     0.823968     0.175373  Biso 1.000000     C
    C   1.0     0.827994     0.823967     0.175374  Biso 1.000000     C
    C   1.0     0.325972     0.752335     0.187845  Biso 1.000000     C
    C   1.0     0.841932     0.752334     0.187845  Biso 1.000000     C
    C   1.0     0.261476     0.705360     0.193591  Biso 1.000000     C
    C   1.0     0.777436     0.705359     0.193592  Biso 1.000000     C
    C   1.0     0.381231     0.875220     0.173804  Biso 1.000000     C
    C   1.0     0.897191     0.875219     0.173804  Biso 1.000000     C
    C   1.0     0.401680     0.465653     0.041386  Biso 1.000000     C
    C   1.0     0.917643     0.465653     0.041386  Biso 1.000000     C
    C   1.0     0.513070     0.408734     0.015483  Biso 1.000000     C
    C   1.0     0.000000     0.408735     0.015484  Biso 1.000000     C
    C   1.0     0.464780     0.406859     0.955582  Biso 1.000000     C
    C   1.0     0.980743     0.406860     0.955582  Biso 1.000000     C
    C   1.0     0.327279     0.455662     0.924278  Biso 1.000000     C
    C   1.0     0.843243     0.455663     0.924278  Biso 1.000000     C
    C   1.0     0.342964     0.465802     0.849891  Biso 1.000000     C
    C   1.0     0.858928     0.465804     0.849891  Biso 1.000000     C
    C   1.0     0.278398     0.476437     0.802110  Biso 1.000000     C
    C   1.0     0.794361     0.476438     0.802110  Biso 1.000000     C
    C   1.0     0.198391     0.478966     0.828217  Biso 1.000000     C
    C   1.0     0.714354     0.478967     0.828217  Biso 1.000000     C
    C   1.0     0.183834     0.470850     0.903253  Biso 1.000000     C
    C   1.0     0.699797     0.470850     0.903253  Biso 1.000000     C
    C   1.0     0.247740     0.458005     0.951411  Biso 1.000000     C
    C   1.0     0.763704     0.458005     0.951411  Biso 1.000000     C
    C   1.0     0.129726     0.490188     0.775593  Biso 1.000000     C
    C   1.0     0.645689     0.490188     0.775594  Biso 1.000000     C
    C   1.0     0.113091     0.866203     0.679242  Biso 1.000000     C
    C   1.0     0.629051     0.866204     0.679241  Biso 1.000000     C
    C   1.0    -0.004895     0.840718     0.726430  Biso 1.000000     C
    C   1.0     0.511063     0.840718     0.726424  Biso 1.000000     C
    C   1.0     0.038827     0.779515     0.726196  Biso 1.000000     C
    C   1.0     0.554785     0.779515     0.726190  Biso 1.000000     C
    C   1.0     0.181072     0.749274     0.687742  Biso 1.000000     C
    C   1.0     0.697032     0.749275     0.687739  Biso 1.000000     C
    C   1.0     0.166176     0.678267     0.673392  Biso 1.000000     C
    C   1.0     0.682136     0.678269     0.673389  Biso 1.000000     C
    C   1.0     0.231253     0.631854     0.668214  Biso 1.000000     C
    C   1.0     0.747213     0.631855     0.668211  Biso 1.000000     C
    C   1.0     0.311212     0.655738     0.676725  Biso 1.000000     C
    C   1.0     0.827172     0.655739     0.676724  Biso 1.000000     C
    C   1.0     0.325144     0.727306     0.689569  Biso 1.000000     C
    C   1.0     0.841104     0.727307     0.689568  Biso 1.000000     C
    C   1.0     0.260653     0.774275     0.695357  Biso 1.000000     C
    C   1.0     0.776613     0.774276     0.695357  Biso 1.000000     C
    C   1.0     0.380426     0.604521     0.674971  Biso 1.000000     C
    C   1.0     0.896387     0.604522     0.674970  Biso 1.000000     C
    C   1.0     0.400543     0.027215     0.542448  Biso 1.000000     C
    C   1.0     0.916506     0.027213     0.542448  Biso 1.000000     C
    C   1.0     0.511727     0.084455     0.516580  Biso 1.000000     C
    C   1.0     0.000000     0.084453     0.516580  Biso 1.000000     C
    C   1.0     0.464928     0.085768     0.454724  Biso 1.000000     C
    C   1.0     0.980892     0.085766     0.454725  Biso 1.000000     C
    C   1.0     0.327604     0.036700     0.423383  Biso 1.000000     C
    C   1.0     0.843567     0.036700     0.423383  Biso 1.000000     C
    C   1.0     0.343370     0.026688     0.348991  Biso 1.000000     C
    C   1.0     0.859333     0.026687     0.348991  Biso 1.000000     C
    C   1.0     0.278855     0.016110     0.301148  Biso 1.000000     C
    C   1.0     0.794818     0.016110     0.301148  Biso 1.000000     C
    C   1.0     0.198838     0.013507     0.327210  Biso 1.000000     C
    C   1.0     0.714801     0.013509     0.327211  Biso 1.000000     C
    C   1.0     0.184205     0.021411     0.402257  Biso 1.000000     C
    C   1.0     0.700168     0.021414     0.402257  Biso 1.000000     C
    C   1.0     0.248060     0.034193     0.450486  Biso 1.000000     C
    C   1.0     0.764024     0.034195     0.450486  Biso 1.000000     C
    C   1.0     0.130226     0.002472     0.274511  Biso 1.000000     C
    C   1.0     0.646188     0.002473     0.274513  Biso 1.000000     C
    C   1.0     0.400997     0.119997     0.177888  Biso 1.000000     C
    C   1.0     0.916956     0.119996     0.177886  Biso 1.000000     C
    C   1.0     0.519213     0.145528     0.224593  Biso 1.000000     C
    C   1.0     0.000000     0.145528     0.224585  Biso 1.000000     C
    C   1.0     0.475568     0.206773     0.224298  Biso 1.000000     C
    C   1.0     0.991529     0.206773     0.224291  Biso 1.000000     C
    C   1.0     0.333102     0.236965     0.186417  Biso 1.000000     C
    C   1.0     0.849062     0.236965     0.186414  Biso 1.000000     C
    C   1.0     0.347804     0.308027     0.172175  Biso 1.000000     C
    C   1.0     0.863764     0.308026     0.172171  Biso 1.000000     C
    C   1.0     0.282640     0.354409     0.167398  Biso 1.000000     C
    C   1.0     0.798600     0.354409     0.167395  Biso 1.000000     C
    C   1.0     0.202764     0.330456     0.176308  Biso 1.000000     C
    C   1.0     0.718723     0.330456     0.176306  Biso 1.000000     C
    C   1.0     0.189027     0.258830     0.188988  Biso 1.000000     C
    C   1.0     0.704987     0.258830     0.188986  Biso 1.000000     C
    C   1.0     0.253585     0.211885     0.194276  Biso 1.000000     C
    C   1.0     0.769545     0.211884     0.194274  Biso 1.000000     C
    C   1.0     0.133362     0.381506     0.175148  Biso 1.000000     C
    C   1.0     0.649322     0.381506     0.175147  Biso 1.000000     C
    C   1.0     0.114205     0.959603     0.041041  Biso 1.000000     C
    C   1.0     0.630167     0.959605     0.041041  Biso 1.000000     C
    C   1.0     0.003277     0.902064     0.014999  Biso 1.000000     C
    C   1.0     0.519236     0.902070     0.014999  Biso 1.000000     C
    C   1.0     0.048655     0.900194     0.955253  Biso 1.000000     C
    C   1.0     0.564613     0.900201     0.955252  Biso 1.000000     C
    C   1.0     0.185979     0.949442     0.924169  Biso 1.000000     C
    C   1.0     0.701938     0.949446     0.924169  Biso 1.000000     C
    C   1.0     0.170448     0.959512     0.849746  Biso 1.000000     C
    C   1.0     0.686407     0.959517     0.849746  Biso 1.000000     C
    C   1.0     0.235113     0.970075     0.802049  Biso 1.000000     C
    C   1.0     0.751073     0.970079     0.802049  Biso 1.000000     C
    C   1.0     0.315072     0.972591     0.828272  Biso 1.000000     C
    C   1.0     0.831032     0.972592     0.828271  Biso 1.000000     C
    C   1.0     0.329464     0.964586     0.903350  Biso 1.000000     C
    C   1.0     0.845424     0.964586     0.903350  Biso 1.000000     C
    C   1.0     0.265458     0.951823     0.951434  Biso 1.000000     C
    C   1.0     0.781418     0.951823     0.951434  Biso 1.000000     C
    C   1.0     0.383899     0.983722     0.775787  Biso 1.000000     C
    C   1.0     0.899859     0.983723     0.775787  Biso 1.000000     C
    N   1.0     0.471582     0.400636     0.696367  Biso 1.000000     N
    N   1.0     0.987542     0.400636     0.696359  Biso 1.000000     N
    N   1.0     0.399095     0.302735     0.695618  Biso 1.000000     N
    N   1.0     0.915055     0.302735     0.695608  Biso 1.000000     N
    N   1.0     0.042703     0.540772     0.570259  Biso 1.000000     N
    N   1.0     0.558663     0.540768     0.570259  Biso 1.000000     N
    N   1.0     0.120018     0.542742     0.471419  Biso 1.000000     N
    N   1.0     0.635977     0.542737     0.471419  Biso 1.000000     N
    N   1.0     0.042510     0.585574     0.195839  Biso 1.000000     N
    N   1.0     0.558470     0.585574     0.195839  Biso 1.000000     N
    N   1.0     0.114982     0.683472     0.195025  Biso 1.000000     N
    N   1.0     0.630943     0.683472     0.195026  Biso 1.000000     N
    N   1.0     0.472258     0.445266     0.069638  Biso 1.000000     N
    N   1.0     0.988220     0.445267     0.069638  Biso 1.000000     N
    N   1.0     0.393752     0.443003     0.972557  Biso 1.000000     N
    N   1.0     0.909715     0.443004     0.972557  Biso 1.000000     N
    N   1.0     0.041762     0.894163     0.696865  Biso 1.000000     N
    N   1.0     0.557721     0.894164     0.696862  Biso 1.000000     N
    N   1.0     0.114193     0.796246     0.696314  Biso 1.000000     N
    N   1.0     0.630152     0.796247     0.696311  Biso 1.000000     N
    N   1.0     0.471099     0.047693     0.570677  Biso 1.000000     N
    N   1.0     0.987062     0.047691     0.570677  Biso 1.000000     N
    N   1.0     0.394042     0.049413     0.471677  Biso 1.000000     N
    N   1.0     0.910006     0.049412     0.471677  Biso 1.000000     N
    N   1.0     0.472368     0.092032     0.195365  Biso 1.000000     N
    N   1.0     0.988328     0.092032     0.195361  Biso 1.000000     N
    N   1.0     0.400054     0.190016     0.194720  Biso 1.000000     N
    N   1.0     0.916014     0.190016     0.194716  Biso 1.000000     N
    N   1.0     0.043630     0.938993     0.069134  Biso 1.000000     N
    N   1.0     0.559590     0.938996     0.069135  Biso 1.000000     N
    N   1.0     0.119384     0.936731     0.972316  Biso 1.000000     N
    N   1.0     0.635343     0.936736     0.972316  Biso 1.000000     N
    O   1.0     0.063469     0.131947     0.701051  Biso 1.000000     O
    O   1.0     0.579429     0.131947     0.701050  Biso 1.000000     O
    O   1.0     0.144169     0.049517     0.651684  Biso 1.000000     O
    O   1.0     0.660128     0.049517     0.651683  Biso 1.000000     O
    O   1.0     0.371436     0.505746     0.206821  Biso 1.000000     O
    O   1.0     0.887397     0.505746     0.206821  Biso 1.000000     O
    O   1.0     0.453736     0.477806     0.300359  Biso 1.000000     O
    O   1.0     0.969697     0.477806     0.300359  Biso 1.000000     O
    O   1.0     0.450687     0.854475     0.197338  Biso 1.000000     O
    O   1.0     0.966647     0.854475     0.197337  Biso 1.000000     O
    O   1.0     0.368506     0.937279     0.150539  Biso 1.000000     O
    O   1.0     0.884466     0.937278     0.150539  Biso 1.000000     O
    O   1.0     0.143032     0.480538     0.707695  Biso 1.000000     O
    O   1.0     0.658994     0.480539     0.707696  Biso 1.000000     O
    O   1.0     0.060433     0.508490     0.801044  Biso 1.000000     O
    O   1.0     0.576396     0.508491     0.801045  Biso 1.000000     O
    O   1.0     0.449906     0.625250     0.698449  Biso 1.000000     O
    O   1.0     0.965866     0.625251     0.698449  Biso 1.000000     O
    O   1.0     0.367668     0.542503     0.651605  Biso 1.000000     O
    O   1.0     0.883628     0.542504     0.651605  Biso 1.000000     O
    O   1.0     0.143603     0.012291     0.206654  Biso 1.000000     O
    O   1.0     0.659565     0.012291     0.206655  Biso 1.000000     O
    O   1.0     0.061249     0.971084     0.299880  Biso 1.000000     O
    O   1.0     0.577212     0.971085     0.299881  Biso 1.000000     O
    O   1.0     0.064509     0.360946     0.200121  Biso 1.000000     O
    O   1.0     0.580469     0.360946     0.200121  Biso 1.000000     O
    O   1.0     0.145272     0.443310     0.150715  Biso 1.000000     O
    O   1.0     0.661231     0.443310     0.150714  Biso 1.000000     O
    O   1.0     0.370812     0.974091     0.707834  Biso 1.000000     O
    O   1.0     0.886772     0.974092     0.707834  Biso 1.000000     O
    O   1.0     0.452796     0.015001     0.801379  Biso 1.000000     O
    O   1.0     0.968757     0.015001     0.801379  Biso 1.000000     O
   Cd   1.0     0.513113     0.515619     0.685898  Biso 1.000000    Cd
   Cd   1.0     0.000000     0.515620     0.685896  Biso 1.000000    Cd
   Cd   1.0     0.001149     0.470532     0.185457  Biso 1.000000    Cd
   Cd   1.0     0.517109     0.470532     0.185456  Biso 1.000000    Cd
   Cd   1.0     0.000146     0.022293     0.686417  Biso 1.000000    Cd
   Cd   1.0     0.516105     0.022294     0.686416  Biso 1.000000    Cd
   Cd   1.0     0.513992     0.963990     0.184788  Biso 1.000000    Cd
   Cd   1.0     0.000000     0.963990     0.184786  Biso 1.000000    Cd
