#======================================================================

# CRYSTAL DATA

#----------------------------------------------------------------------

data_VESTA_phase_1


_pd_phase_name                         MOF
_cell_length_a                         14.18900
_cell_length_b                         14.15500
_cell_length_c                         15.51400
_cell_angle_alpha                      89.90200
_cell_angle_beta                       89.90600
_cell_angle_gamma                      90.65500
_symmetry_space_group_name_H-M         "P 1"
_symmetry_Int_Tables_number            1

loop_
_symmetry_equiv_pos_as_xyz
   "x, y, z"

loop_
   _atom_site_label
   _atom_site_occupancy
   _atom_site_fract_x
   _atom_site_fract_y
   _atom_site_fract_z
   _atom_site_adp_type
   _atom_site_B_iso_or_equiv
   _atom_site_type_symbol
    H   1.0     0.097500     0.179457     0.224559  Biso 1.000000     H
    H   1.0     0.026647     0.074229     0.111874  Biso 1.000000     H
    H   1.0     0.868330     0.926801     0.309288  Biso 1.000000     H
    H   1.0     0.936753     0.032933     0.420176  Biso 1.000000     H
    H   1.0     0.667834     0.949718     0.133158  Biso 1.000000     H
    H   1.0     0.745071     0.021546     0.197526  Biso 1.000000     H
    H   1.0     0.719751     0.902513     0.228185  Biso 1.000000     H
    H   1.0     0.035432     0.893854     0.077333  Biso 1.000000     H
    H   1.0     0.909889     0.801903     0.966105  Biso 1.000000     H
    H   1.0     0.373292     0.037415     0.618995  Biso 1.000000     H
    H   1.0     0.457603     0.950099     0.735452  Biso 1.000000     H
    H   1.0     0.368227     0.158295     0.920308  Biso 1.000000     H
    H   1.0     0.281323     0.242355     0.804293  Biso 1.000000     H
    H   1.0     0.693907     0.990779     0.863821  Biso 1.000000     H
    H   1.0     0.608300     0.042194     0.794940  Biso 1.000000     H
    H   1.0     0.634531     0.919824     0.787680  Biso 1.000000     H
    H   1.0     0.476386     0.875338     0.079699  Biso 1.000000     H
    H   1.0     0.349649     0.991436     0.993024  Biso 1.000000     H
    H   1.0     0.597675     0.680279     0.275738  Biso 1.000000     H
    H   1.0     0.526144     0.574526     0.388149  Biso 1.000000     H
    H   1.0     0.369906     0.427245     0.190140  Biso 1.000000     H
    H   1.0     0.438850     0.534055     0.079575  Biso 1.000000     H
    H   1.0     0.167812     0.448561     0.365498  Biso 1.000000     H
    H   1.0     0.245216     0.520718     0.301129  Biso 1.000000     H
    H   1.0     0.220558     0.401571     0.270733  Biso 1.000000     H
    H   1.0     0.535140     0.394439     0.423081  Biso 1.000000     H
    H   1.0     0.409036     0.301619     0.533848  Biso 1.000000     H
    H   1.0     0.874531     0.537405     0.881059  Biso 1.000000     H
    H   1.0     0.958006     0.449565     0.764422  Biso 1.000000     H
    H   1.0     0.868418     0.657718     0.579198  Biso 1.000000     H
    H   1.0     0.782155     0.742153     0.695405  Biso 1.000000     H
    H   1.0     0.193886     0.489196     0.634541  Biso 1.000000     H
    H   1.0     0.108699     0.541702     0.703299  Biso 1.000000     H
    H   1.0     0.134197     0.419190     0.711578  Biso 1.000000     H
    H   1.0     0.975279     0.374080     0.420414  Biso 1.000000     H
    H   1.0     0.848987     0.490392     0.507443  Biso 1.000000     H
    H   1.0     0.820420     0.902635     0.775519  Biso 1.000000     H
    H   1.0     0.925674     0.973390     0.888135  Biso 1.000000     H
    H   1.0     0.073353     0.131287     0.690572  Biso 1.000000     H
    H   1.0     0.967183     0.062983     0.579752  Biso 1.000000     H
    H   1.0     0.050914     0.332607     0.866566  Biso 1.000000     H
    H   1.0     0.978735     0.255267     0.802569  Biso 1.000000     H
    H   1.0     0.097432     0.280285     0.771438  Biso 1.000000     H
    H   1.0     0.105983     0.964055     0.922563  Biso 1.000000     H
    H   1.0     0.198183     0.089774     0.033551  Biso 1.000000     H
    H   1.0     0.962542     0.627241     0.380827  Biso 1.000000     H
    H   1.0     0.049963     0.543068     0.264346  Biso 1.000000     H
    H   1.0     0.841596     0.631491     0.079609  Biso 1.000000     H
    H   1.0     0.757457     0.718313     0.195619  Biso 1.000000     H
    H   1.0     0.009867     0.305900     0.136118  Biso 1.000000     H
    H   1.0     0.958367     0.391601     0.204979  Biso 1.000000     H
    H   1.0     0.080533     0.365598     0.212236  Biso 1.000000     H
    H   1.0     0.124648     0.524314     0.920292  Biso 1.000000     H
    H   1.0     0.008291     0.650957     0.006872  Biso 1.000000     H
    H   1.0     0.319717     0.402943     0.724470  Biso 1.000000     H
    H   1.0     0.425773     0.473899     0.612095  Biso 1.000000     H
    H   1.0     0.573341     0.629903     0.810083  Biso 1.000000     H
    H   1.0     0.466359     0.561433     0.920643  Biso 1.000000     H
    H   1.0     0.551547     0.832477     0.634194  Biso 1.000000     H
    H   1.0     0.479630     0.754896     0.698638  Biso 1.000000     H
    H   1.0     0.598427     0.779841     0.729084  Biso 1.000000     H
    H   1.0     0.606138     0.464168     0.577522  Biso 1.000000     H
    H   1.0     0.698519     0.590373     0.466407  Biso 1.000000     H
    H   1.0     0.462328     0.125469     0.118694  Biso 1.000000     H
    H   1.0     0.550215     0.042100     0.235370  Biso 1.000000     H
    H   1.0     0.342351     0.131445     0.420567  Biso 1.000000     H
    H   1.0     0.257829     0.217587     0.304315  Biso 1.000000     H
    H   1.0     0.511245     0.805698     0.365786  Biso 1.000000     H
    H   1.0     0.458444     0.890790     0.296989  Biso 1.000000     H
    H   1.0     0.580714     0.865530     0.288458  Biso 1.000000     H
    H   1.0     0.626071     0.025646     0.579215  Biso 1.000000     H
    H   1.0     0.509629     0.151774     0.492049  Biso 1.000000     H
    C   1.0     0.065229     0.177635     0.395125  Biso 1.000000     C
    C   1.0     0.020845     0.113924     0.328992  Biso 1.000000     C
    C   1.0     0.046595     0.124493     0.242096  Biso 1.000000     C
    C   1.0     0.007735     0.065569     0.179588  Biso 1.000000     C
    C   1.0     0.943121     0.995026     0.204076  Biso 1.000000     C
    C   1.0     0.917218     0.983085     0.290443  Biso 1.000000     C
    C   1.0     0.956169     0.042817     0.352736  Biso 1.000000     C
    C   1.0     0.731628     0.950023     0.172871  Biso 1.000000     C
    C   1.0     0.811985     0.916383     0.120446  Biso 1.000000     C
    C   1.0     0.959253     0.890525     0.075502  Biso 1.000000     C
    C   1.0     0.896870     0.846266     0.021560  Biso 1.000000     C
    C   1.0     0.268416     0.193433     0.634177  Biso 1.000000     C
    C   1.0     0.321124     0.144220     0.704591  Biso 1.000000     C
    C   1.0     0.372598     0.062934     0.685159  Biso 1.000000     C
    C   1.0     0.420328     0.015013     0.749777  Biso 1.000000     C
    C   1.0     0.418296     0.049659     0.834231  Biso 1.000000     C
    C   1.0     0.368665     0.131489     0.854455  Biso 1.000000     C
    C   1.0     0.319680     0.178116     0.789440  Biso 1.000000     C
    C   1.0     0.625509     0.979073     0.832453  Biso 1.000000     C
    C   1.0     0.552757     0.959665     0.899385  Biso 1.000000     C
    C   1.0     0.483415     0.913015     0.019088  Biso 1.000000     C
    C   1.0     0.420338     0.969185     0.977499  Biso 1.000000     C
    C   1.0     0.566741     0.679137     0.105023  Biso 1.000000     C
    C   1.0     0.522047     0.614973     0.170992  Biso 1.000000     C
    C   1.0     0.547067     0.625244     0.257990  Biso 1.000000     C
    C   1.0     0.507820     0.566009     0.320365  Biso 1.000000     C
    C   1.0     0.443584     0.495318     0.295682  Biso 1.000000     C
    C   1.0     0.418454     0.483610     0.209202  Biso 1.000000     C
    C   1.0     0.457764     0.543725     0.147064  Biso 1.000000     C
    C   1.0     0.231877     0.449102     0.325949  Biso 1.000000     C
    C   1.0     0.311982     0.415777     0.378740  Biso 1.000000     C
    C   1.0     0.458952     0.390667     0.424507  Biso 1.000000     C
    C   1.0     0.396272     0.345926     0.478169  Biso 1.000000     C
    C   1.0     0.769837     0.693660     0.865704  Biso 1.000000     C
    C   1.0     0.822164     0.644107     0.795268  Biso 1.000000     C
    C   1.0     0.873541     0.562765     0.814771  Biso 1.000000     C
    C   1.0     0.920821     0.514569     0.750048  Biso 1.000000     C
    C   1.0     0.918479     0.549039     0.665443  Biso 1.000000     C
    C   1.0     0.868986     0.630965     0.645152  Biso 1.000000     C
    C   1.0     0.820402     0.677830     0.710267  Biso 1.000000     C
    C   1.0     0.125477     0.478165     0.666301  Biso 1.000000     C
    C   1.0     0.052510     0.458715     0.599850  Biso 1.000000     C
    C   1.0     0.982610     0.411901     0.480784  Biso 1.000000     C
    C   1.0     0.919764     0.468199     0.522560  Biso 1.000000     C
    C   1.0     0.822349     0.934829     0.604888  Biso 1.000000     C
    C   1.0     0.886077     0.979117     0.671008  Biso 1.000000     C
    C   1.0     0.875445     0.953434     0.757929  Biso 1.000000     C
    C   1.0     0.934379     0.992239     0.820403  Biso 1.000000     C
    C   1.0     0.005013     0.056698     0.795860  Biso 1.000000     C
    C   1.0     0.017022     0.082514     0.709465  Biso 1.000000     C
    C   1.0     0.957262     0.043616     0.647208  Biso 1.000000     C
    C   1.0     0.050261     0.268595     0.826943  Biso 1.000000     C
    C   1.0     0.083810     0.188030     0.879362  Biso 1.000000     C
    C   1.0     0.109434     0.040388     0.924342  Biso 1.000000     C
    C   1.0     0.153835     0.102876     0.978163  Biso 1.000000     C
    C   1.0     0.806381     0.731595     0.365697  Biso 1.000000     C
    C   1.0     0.855658     0.678959     0.295275  Biso 1.000000     C
    C   1.0     0.937021     0.627776     0.314681  Biso 1.000000     C
    C   1.0     0.984976     0.580102     0.250058  Biso 1.000000     C
    C   1.0     0.950314     0.581919     0.165631  Biso 1.000000     C
    C   1.0     0.868408     0.631234     0.145442  Biso 1.000000     C
    C   1.0     0.821746     0.680191     0.210455  Biso 1.000000     C
    C   1.0     0.021397     0.374495     0.167465  Biso 1.000000     C
    C   1.0     0.040584     0.447458     0.100521  Biso 1.000000     C
    C   1.0     0.087009     0.517146     0.980864  Biso 1.000000     C
    C   1.0     0.030714     0.580172     0.022405  Biso 1.000000     C
    C   1.0     0.320949     0.433839     0.895120  Biso 1.000000     C
    C   1.0     0.385214     0.478422     0.829218  Biso 1.000000     C
    C   1.0     0.374909     0.453350     0.742223  Biso 1.000000     C
    C   1.0     0.434298     0.492278     0.679872  Biso 1.000000     C
    C   1.0     0.505130     0.556312     0.704564  Biso 1.000000     C
    C   1.0     0.516883     0.581492     0.791037  Biso 1.000000     C
    C   1.0     0.456647     0.542461     0.853164  Biso 1.000000     C
    C   1.0     0.551074     0.768336     0.673851  Biso 1.000000     C
    C   1.0     0.584500     0.687967     0.621255  Biso 1.000000     C
    C   1.0     0.609760     0.540542     0.575881  Biso 1.000000     C
    C   1.0     0.654308     0.603275     0.522055  Biso 1.000000     C
    C   1.0     0.306223     0.230088     0.134033  Biso 1.000000     C
    C   1.0     0.355767     0.177732     0.204474  Biso 1.000000     C
    C   1.0     0.437039     0.126428     0.184985  Biso 1.000000     C
    C   1.0     0.485261     0.079198     0.249727  Biso 1.000000     C
    C   1.0     0.450912     0.081549     0.334343  Biso 1.000000     C
    C   1.0     0.369015     0.130895     0.354607  Biso 1.000000     C
    C   1.0     0.322108     0.179424     0.289471  Biso 1.000000     C
    C   1.0     0.521988     0.874221     0.333862  Biso 1.000000     C
    C   1.0     0.541411     0.947572     0.400114  Biso 1.000000     C
    C   1.0     0.588235     0.018048     0.518923  Biso 1.000000     C
    C   1.0     0.531859     0.080816     0.477088  Biso 1.000000     C
    N   1.0     0.805876     0.863207     0.049500  Biso 1.000000     N
    N   1.0     0.905346     0.934650     0.138348  Biso 1.000000     N
    N   1.0     0.565237     0.907761     0.970539  Biso 1.000000     N
    N   1.0     0.464038     0.997871     0.901205  Biso 1.000000     N
    N   1.0     0.305458     0.362379     0.449703  Biso 1.000000     N
    N   1.0     0.405434     0.434593     0.361274  Biso 1.000000     N
    N   1.0     0.064634     0.406672     0.528845  Biso 1.000000     N
    N   1.0     0.963826     0.496989     0.598430  Biso 1.000000     N
    N   1.0     0.137050     0.194109     0.950193  Biso 1.000000     N
    N   1.0     0.065400     0.094461     0.861527  Biso 1.000000     N
    N   1.0     0.092478     0.435135     0.029415  Biso 1.000000     N
    N   1.0     0.002168     0.536255     0.098667  Biso 1.000000     N
    N   1.0     0.637749     0.694376     0.550274  Biso 1.000000     N
    N   1.0     0.565845     0.594321     0.638955  Biso 1.000000     N
    N   1.0     0.593512     0.935721     0.471057  Biso 1.000000     N
    N   1.0     0.503035     0.036359     0.401391  Biso 1.000000     N
    O   1.0     0.115623     0.247416     0.367231  Biso 1.000000     O
    O   1.0     0.053728     0.160581     0.474744  Biso 1.000000     O
    O   1.0     0.210181     0.258453     0.654479  Biso 1.000000     O
    O   1.0     0.283872     0.169280     0.556483  Biso 1.000000     O
    O   1.0     0.616943     0.748833     0.132892  Biso 1.000000     O
    O   1.0     0.555621     0.662370     0.025335  Biso 1.000000     O
    O   1.0     0.710925     0.757962     0.845126  Biso 1.000000     O
    O   1.0     0.786131     0.670651     0.943527  Biso 1.000000     O
    O   1.0     0.752596     0.884511     0.632772  Biso 1.000000     O
    O   1.0     0.839397     0.946315     0.525266  Biso 1.000000     O
    O   1.0     0.741423     0.789875     0.345405  Biso 1.000000     O
    O   1.0     0.830564     0.716167     0.443380  Biso 1.000000     O
    O   1.0     0.251087     0.384053     0.867152  Biso 1.000000     O
    O   1.0     0.337774     0.444593     0.974833  Biso 1.000000     O
    O   1.0     0.242036     0.289089     0.154642  Biso 1.000000     O
    O   1.0     0.329272     0.213883     0.056217  Biso 1.000000     O
   Cd   1.0     0.171417     0.286513     0.505995  Biso 1.000000    Cd
   Cd   1.0     0.672315     0.787751     0.993077  Biso 1.000000    Cd
   Cd   1.0     0.713478     0.828732     0.493933  Biso 1.000000    Cd
   Cd   1.0     0.212302     0.327967     0.006758  Biso 1.000000    Cd
