#======================================================================

# CRYSTAL DATA

#----------------------------------------------------------------------

data_VESTA_phase_1


_pd_phase_name                         MOF
_cell_length_a                         17.67400
_cell_length_b                         15.67700
_cell_length_c                         19.44400
_cell_angle_alpha                      90.03500
_cell_angle_beta                       89.98800
_cell_angle_gamma                      89.85400
_symmetry_space_group_name_H-M         "P 1"
_symmetry_Int_Tables_number            1

loop_
_symmetry_equiv_pos_as_xyz
   "x, y, z"

loop_
   _atom_site_label
   _atom_site_occupancy
   _atom_site_fract_x
   _atom_site_fract_y
   _atom_site_fract_z
   _atom_site_adp_type
   _atom_site_B_iso_or_equiv
   _atom_site_type_symbol
    H   1.0     0.363364     0.865848     0.504312  Biso 1.000000     H
    H   1.0     0.863364     0.865852     0.504309  Biso 1.000000     H
    H   1.0     0.072298     0.013393     0.687416  Biso 1.000000     H
    H   1.0     0.572301     0.013396     0.687417  Biso 1.000000     H
    H   1.0     0.384916     0.709072     0.505853  Biso 1.000000     H
    H   1.0     0.884918     0.709076     0.505853  Biso 1.000000     H
    H   1.0     0.419009     0.111727     0.582149  Biso 1.000000     H
    H   1.0     0.919014     0.111725     0.582152  Biso 1.000000     H
    H   1.0     0.391961     0.011203     0.615237  Biso 1.000000     H
    H   1.0     0.891965     0.011200     0.615237  Biso 1.000000     H
    H   1.0     0.070527     0.034711     0.815000  Biso 1.000000     H
    H   1.0     0.570531     0.034712     0.815000  Biso 1.000000     H
    H   1.0     0.183917     0.825976     0.652869  Biso 1.000000     H
    H   1.0     0.683923     0.825979     0.652872  Biso 1.000000     H
    H   1.0     0.213191     0.672141     0.647988  Biso 1.000000     H
    H   1.0     0.713199     0.672145     0.647993  Biso 1.000000     H
    H   1.0     0.301970     0.993845     0.829509  Biso 1.000000     H
    H   1.0     0.801974     0.993845     0.829509  Biso 1.000000     H
    H   1.0     0.313256     0.967157     0.704000  Biso 1.000000     H
    H   1.0     0.813259     0.967159     0.704000  Biso 1.000000     H
    H   1.0     0.143337     0.973419     0.587844  Biso 1.000000     H
    H   1.0     0.643340     0.973423     0.587844  Biso 1.000000     H
    H   1.0     0.349130     0.080254     0.469938  Biso 1.000000     H
    H   1.0     0.849137     0.080255     0.469938  Biso 1.000000     H
    H   1.0     0.386794     0.134238     0.004388  Biso 1.000000     H
    H   1.0     0.886798     0.134239     0.004390  Biso 1.000000     H
    H   1.0     0.177326     0.985893     0.187321  Biso 1.000000     H
    H   1.0     0.677330     0.985891     0.187321  Biso 1.000000     H
    H   1.0     0.366259     0.291195     0.000000  Biso 1.000000     H
    H   1.0     0.866260     0.291196     0.000000  Biso 1.000000     H
    H   1.0     0.330610     0.887697     0.081480  Biso 1.000000     H
    H   1.0     0.830616     0.887698     0.081480  Biso 1.000000     H
    H   1.0     0.357772     0.987934     0.115159  Biso 1.000000     H
    H   1.0     0.857778     0.987935     0.115158  Biso 1.000000     H
    H   1.0     0.179133     0.964850     0.314909  Biso 1.000000     H
    H   1.0     0.679138     0.964849     0.314909  Biso 1.000000     H
    H   1.0     0.066383     0.173170     0.152934  Biso 1.000000     H
    H   1.0     0.566387     0.173168     0.152936  Biso 1.000000     H
    H   1.0     0.038122     0.327204     0.147841  Biso 1.000000     H
    H   1.0     0.538127     0.327203     0.147841  Biso 1.000000     H
    H   1.0     0.447743     0.006070     0.329582  Biso 1.000000     H
    H   1.0     0.947748     0.006068     0.329582  Biso 1.000000     H
    H   1.0     0.436424     0.032472     0.204058  Biso 1.000000     H
    H   1.0     0.936429     0.032472     0.204058  Biso 1.000000     H
    H   1.0     0.106353     0.025994     0.087874  Biso 1.000000     H
    H   1.0     0.606358     0.025992     0.087874  Biso 1.000000     H
    H   1.0     0.400603     0.919665     0.969560  Biso 1.000000     H
    H   1.0     0.900609     0.919667     0.969560  Biso 1.000000     H
    H   1.0     0.136506     0.365810     0.997800  Biso 1.000000     H
    H   1.0     0.636509     0.365812     0.997800  Biso 1.000000     H
    H   1.0     0.427959     0.511951     0.816035  Biso 1.000000     H
    H   1.0     0.927965     0.511952     0.816038  Biso 1.000000     H
    H   1.0     0.116030     0.209000    -0.003458  Biso 1.000000     H
    H   1.0     0.616033     0.209001    -0.003458  Biso 1.000000     H
    H   1.0     0.079152     0.611377     0.920995  Biso 1.000000     H
    H   1.0     0.579158     0.611383     0.920993  Biso 1.000000     H
    H   1.0     0.107383     0.511467     0.886964  Biso 1.000000     H
    H   1.0     0.607391     0.511476     0.886959  Biso 1.000000     H
    H   1.0     0.430842     0.533427     0.688494  Biso 1.000000     H
    H   1.0     0.930850     0.533430     0.688497  Biso 1.000000     H
    H   1.0     0.316524     0.325799     0.849619  Biso 1.000000     H
    H   1.0     0.816527     0.325799     0.849619  Biso 1.000000     H
    H   1.0     0.288346     0.171895     0.854840  Biso 1.000000     H
    H   1.0     0.788349     0.171895     0.854841  Biso 1.000000     H
    H   1.0     0.199437     0.494560     0.672364  Biso 1.000000     H
    H   1.0     0.699446     0.494564     0.672364  Biso 1.000000     H
    H   1.0     0.187028     0.467889     0.797759  Biso 1.000000     H
    H   1.0     0.687035     0.467891     0.797758  Biso 1.000000     H
    H   1.0     0.356229     0.472576     0.914941  Biso 1.000000     H
    H   1.0     0.856233     0.472576     0.914943  Biso 1.000000     H
    H   1.0     0.149337     0.579316     0.032819  Biso 1.000000     H
    H   1.0     0.649342     0.579322     0.032816  Biso 1.000000     H
    H   1.0     0.114541     0.634523     0.497662  Biso 1.000000     H
    H   1.0     0.614539     0.634525     0.497667  Biso 1.000000     H
    H   1.0     0.323561     0.487861     0.315711  Biso 1.000000     H
    H   1.0     0.823554     0.487908     0.315710  Biso 1.000000     H
    H   1.0     0.134260     0.791459     0.496498  Biso 1.000000     H
    H   1.0     0.634257     0.791461     0.496500  Biso 1.000000     H
    H   1.0     0.172523     0.388758     0.421146  Biso 1.000000     H
    H   1.0     0.672525     0.388763     0.421145  Biso 1.000000     H
    H   1.0     0.144307     0.488662     0.387210  Biso 1.000000     H
    H   1.0     0.644313     0.488668     0.387213  Biso 1.000000     H
    H   1.0     0.320939     0.466700     0.188087  Biso 1.000000     H
    H   1.0     0.820931     0.466744     0.188086  Biso 1.000000     H
    H   1.0     0.434284     0.673345     0.349623  Biso 1.000000     H
    H   1.0     0.934288     0.673348     0.349628  Biso 1.000000     H
    H   1.0     0.461720     0.827409     0.354910  Biso 1.000000     H
    H   1.0     0.961725     0.827412     0.354917  Biso 1.000000     H
    H   1.0     0.052451     0.505084     0.172433  Biso 1.000000     H
    H   1.0     0.552459     0.505113     0.172428  Biso 1.000000     H
    H   1.0     0.064592     0.531445     0.297913  Biso 1.000000     H
    H   1.0     0.564599     0.531472     0.297908  Biso 1.000000     H
    H   1.0     0.395205     0.527047     0.414790  Biso 1.000000     H
    H   1.0     0.895207     0.527058     0.414793  Biso 1.000000     H
    H   1.0     0.102206     0.420930     0.533026  Biso 1.000000     H
    H   1.0     0.602217     0.420940     0.533030  Biso 1.000000     H
    C   1.0     0.342046     0.044302     0.517538  Biso 1.000000     C
    C   1.0     0.842051     0.044303     0.517538  Biso 1.000000     C
    C   1.0     0.193449     0.990110     0.684557  Biso 1.000000     C
    C   1.0     0.693452     0.990113     0.684557  Biso 1.000000     C
    C   1.0     0.277531    -0.000132     0.522113  Biso 1.000000     C
    C   1.0     0.777535    -0.000130     0.522112  Biso 1.000000     C
    C   1.0     0.271355     0.860341     0.578839  Biso 1.000000     C
    C   1.0     0.771359     0.860345     0.578839  Biso 1.000000     C
    C   1.0     0.328764     0.825205     0.536944  Biso 1.000000     C
    C   1.0     0.828766     0.825209     0.536943  Biso 1.000000     C
    C   1.0     0.124201     0.010047     0.717568  Biso 1.000000     C
    C   1.0     0.624205     0.010049     0.717568  Biso 1.000000     C
    C   1.0     0.340892     0.738012     0.537491  Biso 1.000000     C
    C   1.0     0.840895     0.738016     0.537491  Biso 1.000000     C
    C   1.0     0.405494     0.045435     0.567620  Biso 1.000000     C
    C   1.0     0.905498     0.045434     0.567621  Biso 1.000000     C
    C   1.0     0.479328     0.007671     0.538045  Biso 1.000000     C
    C   1.0     0.979333     0.007671     0.538045  Biso 1.000000     C
    C   1.0     0.123282     0.022892     0.787585  Biso 1.000000     C
    C   1.0     0.623286     0.022894     0.787585  Biso 1.000000     C
    C   1.0     0.229160     0.803301     0.619670  Biso 1.000000     C
    C   1.0     0.729165     0.803304     0.619672  Biso 1.000000     C
    C   1.0     0.245344     0.717068     0.616794  Biso 1.000000     C
    C   1.0     0.745350     0.717072     0.616797  Biso 1.000000     C
    C   1.0     0.252564     0.998828     0.796093  Biso 1.000000     C
    C   1.0     0.752568     0.998829     0.796093  Biso 1.000000     C
    C   1.0     0.258771     0.984064     0.726190  Biso 1.000000     C
    C   1.0     0.758775     0.984066     0.726190  Biso 1.000000     C
    C   1.0     0.220189    -0.000776     0.464491  Biso 1.000000     C
    C   1.0     0.720193    -0.000773     0.464491  Biso 1.000000     C
    C   1.0     0.407672     0.955449     0.017254  Biso 1.000000     C
    C   1.0     0.907677     0.955451     0.017254  Biso 1.000000     C
    C   1.0     0.056193     0.009303     0.184540  Biso 1.000000     C
    C   1.0     0.556198     0.009302     0.184539  Biso 1.000000     C
    C   1.0     0.472192     0.999860     0.021969  Biso 1.000000     C
    C   1.0     0.972197     0.999862     0.021968  Biso 1.000000     C
    C   1.0     0.478838     0.139268     0.078869  Biso 1.000000     C
    C   1.0     0.978842     0.139269     0.078870  Biso 1.000000     C
    C   1.0     0.421648     0.174718     0.036957  Biso 1.000000     C
    C   1.0     0.921652     0.174719     0.036959  Biso 1.000000     C
    C   1.0     0.125436     0.989356     0.217508  Biso 1.000000     C
    C   1.0     0.625441     0.989354     0.217507  Biso 1.000000     C
    C   1.0     0.410098     0.262010     0.037367  Biso 1.000000     C
    C   1.0     0.910100     0.262010     0.037370  Biso 1.000000     C
    C   1.0     0.344211     0.954080     0.067347  Biso 1.000000     C
    C   1.0     0.844216     0.954081     0.067347  Biso 1.000000     C
    C   1.0     0.270418     0.992140     0.037986  Biso 1.000000     C
    C   1.0     0.770423     0.992140     0.037986  Biso 1.000000     C
    C   1.0     0.126376     0.976688     0.287532  Biso 1.000000     C
    C   1.0     0.626381     0.976688     0.287532  Biso 1.000000     C
    C   1.0     0.021324     0.196091     0.119680  Biso 1.000000     C
    C   1.0     0.521329     0.196089     0.119680  Biso 1.000000     C
    C   1.0     0.005717     0.282442     0.116677  Biso 1.000000     C
    C   1.0     0.505723     0.282441     0.116676  Biso 1.000000     C
    C   1.0     0.497126     0.000942     0.296127  Biso 1.000000     C
    C   1.0     0.997131     0.000942     0.296127  Biso 1.000000     C
    C   1.0     0.490900     0.015539     0.226217  Biso 1.000000     C
    C   1.0     0.990906     0.015539     0.226218  Biso 1.000000     C
    C   1.0     0.029578     0.000000     0.964387  Biso 1.000000     C
    C   1.0     0.529582     0.000000     0.964387  Biso 1.000000     C
    C   1.0     0.156877     0.543818     0.985028  Biso 1.000000     C
    C   1.0     0.656882     0.543823     0.985025  Biso 1.000000     C
    C   1.0     0.306716     0.489886     0.818080  Biso 1.000000     C
    C   1.0     0.806722     0.489887     0.818081  Biso 1.000000     C
    C   1.0     0.221639     0.499450     0.980464  Biso 1.000000     C
    C   1.0     0.721642     0.499451     0.980463  Biso 1.000000     C
    C   1.0     0.228746     0.360240     0.923483  Biso 1.000000     C
    C   1.0     0.728749     0.360240     0.923483  Biso 1.000000     C
    C   1.0     0.171460     0.325127     0.965316  Biso 1.000000     C
    C   1.0     0.671463     0.325128     0.965316  Biso 1.000000     C
    C   1.0     0.376279     0.509200     0.785546  Biso 1.000000     C
    C   1.0     0.876286     0.509201     0.785548  Biso 1.000000     C
    C   1.0     0.159948     0.237901     0.964968  Biso 1.000000     C
    C   1.0     0.659950     0.237902     0.964968  Biso 1.000000     C
    C   1.0     0.093495     0.545027     0.934868  Biso 1.000000     C
    C   1.0     0.593501     0.545033     0.934863  Biso 1.000000     C
    C   1.0     0.020187     0.506246     0.964354  Biso 1.000000     C
    C   1.0     0.520194     0.506249     0.964347  Biso 1.000000     C
    C   1.0     0.377835     0.522114     0.715565  Biso 1.000000     C
    C   1.0     0.877842     0.522117     0.715567  Biso 1.000000     C
    C   1.0     0.271383     0.303149     0.882806  Biso 1.000000     C
    C   1.0     0.771386     0.303149     0.882807  Biso 1.000000     C
    C   1.0     0.255818     0.216874     0.885883  Biso 1.000000     C
    C   1.0     0.755821     0.216875     0.885883  Biso 1.000000     C
    C   1.0     0.248566     0.499148     0.706134  Biso 1.000000     C
    C   1.0     0.748574     0.499151     0.706134  Biso 1.000000     C
    C   1.0     0.241738     0.484376     0.775983  Biso 1.000000     C
    C   1.0     0.741745     0.484378     0.775984  Biso 1.000000     C
    C   1.0     0.278449     0.498077     0.038519  Biso 1.000000     C
    C   1.0     0.778451     0.498078     0.038518  Biso 1.000000     C
    C   1.0     0.094695     0.456277     0.485171  Biso 1.000000     C
    C   1.0     0.594704     0.456284     0.485174  Biso 1.000000     C
    C   1.0     0.444847     0.509623     0.317980  Biso 1.000000     C
    C   1.0     0.944846     0.509631     0.317982  Biso 1.000000     C
    C   1.0     0.029847     0.500437     0.480434  Biso 1.000000     C
    C   1.0     0.529854     0.500439     0.480435  Biso 1.000000     C
    C   1.0     0.022269     0.639475     0.423397  Biso 1.000000     C
    C   1.0     0.522272     0.639475     0.423396  Biso 1.000000     C
    C   1.0     0.079386     0.674965     0.465216  Biso 1.000000     C
    C   1.0     0.579385     0.674966     0.465218  Biso 1.000000     C
    C   1.0     0.375318     0.490543     0.285306  Biso 1.000000     C
    C   1.0     0.875313     0.490573     0.285306  Biso 1.000000     C
    C   1.0     0.090468     0.762262     0.464918  Biso 1.000000     C
    C   1.0     0.590467     0.762263     0.464919  Biso 1.000000     C
    C   1.0     0.158155     0.455104     0.435086  Biso 1.000000     C
    C   1.0     0.658162     0.455109     0.435087  Biso 1.000000     C
    C   1.0     0.231469     0.493875     0.464589  Biso 1.000000     C
    C   1.0     0.731480     0.493874     0.464587  Biso 1.000000     C
    C   1.0     0.373903     0.477797     0.215284  Biso 1.000000     C
    C   1.0     0.873897     0.477824     0.215284  Biso 1.000000     C
    C   1.0     0.479340     0.696275     0.382786  Biso 1.000000     C
    C   1.0     0.979346     0.696277     0.382789  Biso 1.000000     C
    C   1.0     0.494481     0.782650     0.385901  Biso 1.000000     C
    C   1.0     0.994487     0.782652     0.385906  Biso 1.000000     C
    C   1.0     0.003233     0.500524     0.206112  Biso 1.000000     C
    C   1.0     0.503244     0.500537     0.206108  Biso 1.000000     C
    C   1.0     0.009916     0.515120     0.275999  Biso 1.000000     C
    C   1.0     0.509925     0.515132     0.275996  Biso 1.000000     C
    C   1.0     0.472866     0.501894     0.538337  Biso 1.000000     C
    C   1.0     0.972871     0.501895     0.538337  Biso 1.000000     C
    N   1.0     0.193460     0.975255     0.615544  Biso 1.000000     N
    N   1.0     0.693464     0.975259     0.615544  Biso 1.000000     N
    N   1.0     0.258965     0.947901     0.581272  Biso 1.000000     N
    N   1.0     0.758967     0.947905     0.581272  Biso 1.000000     N
    N   1.0     0.300163     0.683229     0.576581  Biso 1.000000     N
    N   1.0     0.800168     0.683233     0.576583  Biso 1.000000     N
    N   1.0     0.186335     0.018431     0.827568  Biso 1.000000     N
    N   1.0     0.686338     0.018432     0.827568  Biso 1.000000     N
    N   1.0     0.056177     0.023930     0.115504  Biso 1.000000     N
    N   1.0     0.556182     0.023929     0.115503  Biso 1.000000     N
    N   1.0     0.490766     0.051621     0.081296  Biso 1.000000     N
    N   1.0     0.990771     0.051622     0.081296  Biso 1.000000     N
    N   1.0     0.451196     0.316597     0.076361  Biso 1.000000     N
    N   1.0     0.951199     0.316598     0.076363  Biso 1.000000     N
    N   1.0     0.063348     0.981335     0.327560  Biso 1.000000     N
    N   1.0     0.563353     0.981336     0.327560  Biso 1.000000     N
    N   1.0     0.306214     0.475207     0.887122  Biso 1.000000     N
    N   1.0     0.806219     0.475207     0.887123  Biso 1.000000     N
    N   1.0     0.240651     0.447831     0.921094  Biso 1.000000     N
    N   1.0     0.740655     0.447831     0.921094  Biso 1.000000     N
    N   1.0     0.201198     0.183048     0.926126  Biso 1.000000     N
    N   1.0     0.701201     0.183049     0.926127  Biso 1.000000     N
    N   1.0     0.315102     0.518256     0.675141  Biso 1.000000     N
    N   1.0     0.815111     0.518259     0.675142  Biso 1.000000     N
    N   1.0     0.445298     0.524043     0.387072  Biso 1.000000     N
    N   1.0     0.945299     0.524049     0.387074  Biso 1.000000     N
    N   1.0     0.010794     0.551792     0.420976  Biso 1.000000     N
    N   1.0     0.510800     0.551791     0.420976  Biso 1.000000     N
    N   1.0     0.048938     0.816835     0.426138  Biso 1.000000     N
    N   1.0     0.548939     0.816835     0.426135  Biso 1.000000     N
    N   1.0     0.436749     0.481613     0.174979  Biso 1.000000     N
    N   1.0     0.936745     0.481618     0.174981  Biso 1.000000     N
    O   1.0     0.480201    -0.000390     0.471633  Biso 1.000000     O
    O   1.0     0.980206    -0.000390     0.471633  Biso 1.000000     O
    O   1.0     0.031336     0.988319     0.578305  Biso 1.000000     O
    O   1.0     0.531341     0.988320     0.578306  Biso 1.000000     O
    O   1.0     0.228415     0.043476     0.412414  Biso 1.000000     O
    O   1.0     0.728419     0.043478     0.412413  Biso 1.000000     O
    O   1.0     0.164089     0.947072     0.477382  Biso 1.000000     O
    O   1.0     0.664093     0.947074     0.477381  Biso 1.000000     O
    O   1.0     0.269453     0.000000     0.971616  Biso 1.000000     O
    O   1.0     0.769458     0.000000     0.971615  Biso 1.000000     O
    O   1.0     0.218524     0.011620     0.078370  Biso 1.000000     O
    O   1.0     0.718528     0.011620     0.078370  Biso 1.000000     O
    O   1.0     0.021440     0.956472     0.912226  Biso 1.000000     O
    O   1.0     0.521445     0.956471     0.912226  Biso 1.000000     O
    O   1.0     0.085624     0.052870     0.977391  Biso 1.000000     O
    O   1.0     0.585628     0.052869     0.977392  Biso 1.000000     O
    O   1.0     0.018918     0.499709     0.030830  Biso 1.000000     O
    O   1.0     0.518923     0.499711     0.030824  Biso 1.000000     O
    O   1.0     0.468934     0.484864     0.924034  Biso 1.000000     O
    O   1.0     0.968935     0.484863     0.924041  Biso 1.000000     O
    O   1.0     0.268761     0.540506     0.091451  Biso 1.000000     O
    O   1.0     0.768764     0.540508     0.091450  Biso 1.000000     O
    O   1.0     0.335640     0.447374     0.025078  Biso 1.000000     O
    O   1.0     0.835641     0.447373     0.025079  Biso 1.000000     O
    O   1.0     0.232873     0.500375     0.531090  Biso 1.000000     O
    O   1.0     0.732888     0.500373     0.531088  Biso 1.000000     O
    O   1.0     0.282628     0.515261     0.424160  Biso 1.000000     O
    O   1.0     0.782637     0.515260     0.424155  Biso 1.000000     O
    O   1.0     0.481989     0.459297     0.591213  Biso 1.000000     O
    O   1.0     0.981992     0.459297     0.591211  Biso 1.000000     O
    O   1.0     0.415972     0.552970     0.524852  Biso 1.000000     O
    O   1.0     0.915981     0.552979     0.524855  Biso 1.000000     O
   Zn   1.0     0.180655     0.052673     0.927496  Biso 1.000000    Zn
   Zn   1.0     0.680659     0.052674     0.927496  Biso 1.000000    Zn
   Zn   1.0     0.069125     0.947304     0.427486  Biso 1.000000    Zn
   Zn   1.0     0.569130     0.947304     0.427486  Biso 1.000000    Zn
   Zn   1.0     0.321603     0.552894     0.575389  Biso 1.000000    Zn
   Zn   1.0     0.821611     0.552900     0.575390  Biso 1.000000    Zn
   Zn   1.0     0.430550     0.447005     0.075181  Biso 1.000000    Zn
   Zn   1.0     0.930551     0.447006     0.075184  Biso 1.000000    Zn
