#======================================================================

# CRYSTAL DATA

#----------------------------------------------------------------------

data_VESTA_phase_1


_pd_phase_name                         MOF
_cell_length_a                         15.07500
_cell_length_b                         19.61200
_cell_length_c                         31.34900
_cell_angle_alpha                      101.73000
_cell_angle_beta                       90.02300
_cell_angle_gamma                      112.52100
_symmetry_space_group_name_H-M         "P 1"
_symmetry_Int_Tables_number            1

loop_
_symmetry_equiv_pos_as_xyz
   "x, y, z"

loop_
   _atom_site_label
   _atom_site_occupancy
   _atom_site_fract_x
   _atom_site_fract_y
   _atom_site_fract_z
   _atom_site_adp_type
   _atom_site_B_iso_or_equiv
   _atom_site_type_symbol
    H   1.0     0.600922     0.160602     0.627522  Biso 1.000000     H
    H   1.0     0.447576     0.049388     0.629738  Biso 1.000000     H
    H   1.0     0.385503     0.030809     0.492643  Biso 1.000000     H
    H   1.0     0.542252     0.143287     0.495746  Biso 1.000000     H
    H   1.0     0.557796     0.307129     0.578385  Biso 1.000000     H
    H   1.0     0.529568     0.410648     0.629309  Biso 1.000000     H
    H   1.0     0.809022     0.471903     0.696012  Biso 1.000000     H
    H   1.0     0.824603     0.362860     0.643298  Biso 1.000000     H
    H   1.0     0.395522     0.499152     0.672462  Biso 1.000000     H
    H   1.0     0.248567     0.531061     0.676429  Biso 1.000000     H
    H   1.0     0.388711     0.726049     0.771522  Biso 1.000000     H
    H   1.0     0.540704     0.702067     0.771682  Biso 1.000000     H
    H   1.0     0.092509     0.640861     0.638752  Biso 1.000000     H
    H   1.0     0.098759     0.720747     0.584317  Biso 1.000000     H
    H   1.0     0.334674     0.902036     0.666788  Biso 1.000000     H
    H   1.0     0.315514     0.816925     0.719332  Biso 1.000000     H
    H   1.0     0.709513     0.724300     0.820510  Biso 1.000000     H
    H   1.0     0.838122     0.806912     0.879084  Biso 1.000000     H
    H   1.0     0.000000     0.699327     0.833098  Biso 1.000000     H
    H   1.0     0.898720     0.613041     0.771081  Biso 1.000000     H
    H   1.0     0.842649     0.763504     0.472234  Biso 1.000000     H
    H   1.0     0.983850     0.777625     0.521524  Biso 1.000000     H
    H   1.0     0.146823     0.984914     0.481647  Biso 1.000000     H
    H   1.0     0.999507     0.961987     0.433182  Biso 1.000000     H
    H   1.0     0.554963     0.159727     0.125853  Biso 1.000000     H
    H   1.0     0.596711     0.048268     0.128538  Biso 1.000000     H
    H   1.0     0.646520     0.031440    -0.007861  Biso 1.000000     H
    H   1.0     0.602517     0.144101    -0.005250  Biso 1.000000     H
    H   1.0     0.748736     0.306957     0.076758  Biso 1.000000     H
    H   1.0     0.880519     0.409935     0.127810  Biso 1.000000     H
    H   1.0     0.662797     0.471481     0.194887  Biso 1.000000     H
    H   1.0     0.538133     0.363020     0.141976  Biso 1.000000     H
    H   1.0     0.102814     0.497824     0.171019  Biso 1.000000     H
    H   1.0     0.281515     0.529360     0.174913  Biso 1.000000     H
    H   1.0     0.336558     0.724546     0.269951  Biso 1.000000     H
    H   1.0     0.160800     0.700974     0.270172  Biso 1.000000     H
    H   1.0     0.549391     0.640515     0.137795  Biso 1.000000     H
    H   1.0     0.623160     0.721376     0.083871  Biso 1.000000     H
    H   1.0     0.562204     0.900252     0.165673  Biso 1.000000     H
    H   1.0     0.496443     0.814352     0.217804  Biso 1.000000     H
    H   1.0     0.014002     0.720553     0.320519  Biso 1.000000     H
    H   1.0     0.968606     0.803668     0.379027  Biso 1.000000     H
    H   1.0     0.680130     0.700977     0.331184  Biso 1.000000     H
    H   1.0     0.714801     0.614109     0.269281  Biso 1.000000     H
    H   1.0     0.919970     0.763002     0.972812  Biso 1.000000     H
    H   1.0     0.791850     0.777133     0.021397  Biso 1.000000     H
    H   1.0     0.839074     0.985693     0.982348  Biso 1.000000     H
    H   1.0     0.964389     0.962682     0.934496  Biso 1.000000     H
    H   1.0     0.445059     0.840265     0.874154  Biso 1.000000     H
    H   1.0     0.403310     0.951723     0.871469  Biso 1.000000     H
    H   1.0     0.353502     0.968559     0.007862  Biso 1.000000     H
    H   1.0     0.397508     0.855893     0.000000  Biso 1.000000     H
    H   1.0     0.251285     0.693031     0.923250  Biso 1.000000     H
    H   1.0     0.119503     0.590054     0.872197  Biso 1.000000     H
    H   1.0     0.337225     0.528510     0.805120  Biso 1.000000     H
    H   1.0     0.461888     0.636970     0.858032  Biso 1.000000     H
    H   1.0     0.897209     0.502166     0.828988  Biso 1.000000     H
    H   1.0     0.718509     0.470633     0.825093  Biso 1.000000     H
    H   1.0     0.663464     0.275444     0.730057  Biso 1.000000     H
    H   1.0     0.839221     0.299014     0.729837  Biso 1.000000     H
    H   1.0     0.450633     0.359478     0.862213  Biso 1.000000     H
    H   1.0     0.376862     0.278616     0.916136  Biso 1.000000     H
    H   1.0     0.437819     0.099741     0.834335  Biso 1.000000     H
    H   1.0     0.503584     0.185642     0.782204  Biso 1.000000     H
    H   1.0     0.986018     0.279434     0.679491  Biso 1.000000     H
    H   1.0     0.031411     0.196320     0.620982  Biso 1.000000     H
    H   1.0     0.319889     0.299011     0.668822  Biso 1.000000     H
    H   1.0     0.285220     0.385878     0.730727  Biso 1.000000     H
    H   1.0     0.080050     0.236987     0.027196  Biso 1.000000     H
    H   1.0     0.208171     0.222858     0.978611  Biso 1.000000     H
    H   1.0     0.160951     0.014298     0.017659  Biso 1.000000     H
    H   1.0     0.035635     0.037307     0.065511  Biso 1.000000     H
    H   1.0     0.399096     0.839384     0.372485  Biso 1.000000     H
    H   1.0     0.552441     0.950599     0.370269  Biso 1.000000     H
    H   1.0     0.614514     0.969179     0.507365  Biso 1.000000     H
    H   1.0     0.457767     0.856700     0.504261  Biso 1.000000     H
    H   1.0     0.442224     0.692860     0.421621  Biso 1.000000     H
    H   1.0     0.470454     0.589342     0.370697  Biso 1.000000     H
    H   1.0     0.190997     0.528085     0.303995  Biso 1.000000     H
    H   1.0     0.175416     0.637127     0.356709  Biso 1.000000     H
    H   1.0     0.604499     0.500838     0.327545  Biso 1.000000     H
    H   1.0     0.751454     0.468928     0.323578  Biso 1.000000     H
    H   1.0     0.611310     0.273941     0.228485  Biso 1.000000     H
    H   1.0     0.459318     0.297923     0.228323  Biso 1.000000     H
    H   1.0     0.907510     0.359127     0.361256  Biso 1.000000     H
    H   1.0     0.901259     0.279241     0.415691  Biso 1.000000     H
    H   1.0     0.665345     0.097952     0.333218  Biso 1.000000     H
    H   1.0     0.684508     0.183063     0.280675  Biso 1.000000     H
    H   1.0     0.290510     0.275692     0.179495  Biso 1.000000     H
    H   1.0     0.161900     0.193078     0.120922  Biso 1.000000     H
    H   1.0    -0.020167     0.300659     0.166910  Biso 1.000000     H
    H   1.0     0.101301     0.386947     0.228926  Biso 1.000000     H
    H   1.0     0.157368     0.236483     0.527774  Biso 1.000000     H
    H   1.0     0.016168     0.222363     0.478484  Biso 1.000000     H
    H   1.0     0.853195     0.015073     0.518359  Biso 1.000000     H
    H   1.0     0.000511     0.037999     0.566825  Biso 1.000000     H
    C   1.0     0.551217     0.129959     0.598411  Biso 1.000000     C
    C   1.0     0.466987     0.068111     0.599432  Biso 1.000000     C
    C   1.0     0.406175     0.030763     0.560913  Biso 1.000000     C
    C   1.0     0.432187     0.057891     0.522881  Biso 1.000000     C
    C   1.0     0.518157     0.119852     0.524416  Biso 1.000000     C
    C   1.0     0.611919     0.344827     0.604801  Biso 1.000000     C
    C   1.0     0.596480     0.402783     0.633173  Biso 1.000000     C
    C   1.0     0.667754     0.449955     0.666711  Biso 1.000000     C
    C   1.0     0.751682     0.436031     0.670571  Biso 1.000000     C
    C   1.0     0.761103     0.376330     0.641321  Biso 1.000000     C
    C   1.0     0.655862     0.513108     0.697759  Biso 1.000000     C
    C   1.0     0.569540     0.583646     0.722099  Biso 1.000000     C
    C   1.0     0.717323     0.613239     0.755593  Biso 1.000000     C
    C   1.0     0.480366     0.599034     0.721478  Biso 1.000000     C
    C   1.0     0.396875     0.550311     0.694440  Biso 1.000000     C
    C   1.0     0.315593     0.567879     0.696383  Biso 1.000000     C
    C   1.0     0.394331     0.677293     0.749519  Biso 1.000000     C
    C   1.0     0.477915     0.663593     0.749631  Biso 1.000000     C
    C   1.0     0.144668     0.699199     0.643602  Biso 1.000000     C
    C   1.0     0.148086     0.743559     0.613792  Biso 1.000000     C
    C   1.0     0.280089     0.844595     0.659750  Biso 1.000000     C
    C   1.0     0.270745     0.797399     0.688465  Biso 1.000000     C
    C   1.0     0.793834     0.661982     0.790906  Biso 1.000000     C
    C   1.0     0.777587     0.717437     0.821851  Biso 1.000000     C
    C   1.0     0.849095     0.763225     0.854804  Biso 1.000000     C
    C   1.0     0.950082     0.702500     0.829130  Biso 1.000000     C
    C   1.0     0.882308     0.654670     0.794762  Biso 1.000000     C
    C   1.0     0.911950     0.811153     0.475106  Biso 1.000000     C
    C   1.0     0.989559     0.819401     0.502410  Biso 1.000000     C
    C   1.0     0.076161     0.882274     0.504886  Biso 1.000000     C
    C   1.0     0.080655     0.935150     0.480027  Biso 1.000000     C
    C   1.0     0.999938     0.922907     0.453442  Biso 1.000000     C
    C   1.0     0.160763     0.893751     0.533768  Biso 1.000000     C
    C   1.0     0.225178     0.866614     0.590184  Biso 1.000000     C
    C   1.0     0.315168     0.965088     0.560947  Biso 1.000000     C
    C   1.0     0.217409     0.817746     0.621615  Biso 1.000000     C
    C   1.0     0.575322     0.129394     0.097009  Biso 1.000000     C
    C   1.0     0.597498     0.067435     0.098278  Biso 1.000000     C
    C   1.0     0.622685     0.030543     0.060079  Biso 1.000000     C
    C   1.0     0.625593     0.058189     0.022113  Biso 1.000000     C
    C   1.0     0.601719     0.120238     0.023381  Biso 1.000000     C
    C   1.0     0.732438     0.344575     0.103300  Biso 1.000000     C
    C   1.0     0.805838     0.402212     0.131742  Biso 1.000000     C
    C   1.0     0.781848     0.449335     0.165396  Biso 1.000000     C
    C   1.0     0.684141     0.435634     0.169344  Biso 1.000000     C
    C   1.0     0.615007     0.376259     0.139997  Biso 1.000000     C
    C   1.0     0.856870     0.512229     0.196492  Biso 1.000000     C
    C   1.0     0.013578     0.582473     0.220795  Biso 1.000000     C
    C   1.0     0.895604     0.612022     0.254531  Biso 1.000000     C
    C   1.0     0.118027     0.597818     0.220026  Biso 1.000000     C
    C   1.0     0.152645     0.548928     0.192976  Biso 1.000000     C
    C   1.0     0.251378     0.566299     0.194865  Biso 1.000000     C
    C   1.0     0.282182     0.675842     0.247974  Biso 1.000000     C
    C   1.0     0.185014     0.662346     0.248137  Biso 1.000000     C
    C   1.0     0.554317     0.698582     0.142638  Biso 1.000000     C
    C   1.0     0.595257     0.743447     0.113112  Biso 1.000000     C
    C   1.0     0.560772     0.843167     0.158689  Biso 1.000000     C
    C   1.0     0.523017     0.795514     0.187162  Biso 1.000000     C
    C   1.0     0.867992     0.660749     0.289941  Biso 1.000000     C
    C   1.0     0.939467     0.714833     0.321438  Biso 1.000000     C
    C   1.0     0.914082     0.760988     0.354337  Biso 1.000000     C
    C   1.0     0.753000     0.702964     0.327632  Biso 1.000000     C
    C   1.0     0.772656     0.654804     0.293324  Biso 1.000000     C
    C   1.0     0.898724     0.810936     0.975706  Biso 1.000000     C
    C   1.0     0.828821     0.819191     0.002617  Biso 1.000000     C
    C   1.0     0.805606     0.882402     0.005088  Biso 1.000000     C
    C   1.0     0.855048     0.935648     0.980675  Biso 1.000000     C
    C   1.0     0.924028     0.923379     0.954449  Biso 1.000000     C
    C   1.0     0.731874     0.893752     0.033565  Biso 1.000000     C
    C   1.0     0.639498     0.866353     0.089639  Biso 1.000000     C
    C   1.0     0.648117     0.964877     0.060344  Biso 1.000000     C
    C   1.0     0.598329     0.817201     0.120882  Biso 1.000000     C
    C   1.0     0.424694     0.870595     0.902998  Biso 1.000000     C
    C   1.0     0.402525     0.932558     0.901729  Biso 1.000000     C
    C   1.0     0.377341     0.969451     0.939929  Biso 1.000000     C
    C   1.0     0.374432     0.941804     0.977894  Biso 1.000000     C
    C   1.0     0.398301     0.879752     0.976626  Biso 1.000000     C
    C   1.0     0.267584     0.655416     0.896707  Biso 1.000000     C
    C   1.0     0.194182     0.597771     0.868269  Biso 1.000000     C
    C   1.0     0.218176     0.550669     0.834604  Biso 1.000000     C
    C   1.0     0.315880     0.564350     0.830667  Biso 1.000000     C
    C   1.0     0.385015     0.623734     0.860009  Biso 1.000000     C
    C   1.0     0.143149     0.487738     0.803527  Biso 1.000000     C
    C   1.0     0.986442     0.417506     0.779220  Biso 1.000000     C
    C   1.0     0.104417     0.387955     0.745485  Biso 1.000000     C
    C   1.0     0.881996     0.402179     0.779977  Biso 1.000000     C
    C   1.0     0.847377     0.451060     0.807034  Biso 1.000000     C
    C   1.0     0.748643     0.433690     0.805144  Biso 1.000000     C
    C   1.0     0.717840     0.324146     0.752036  Biso 1.000000     C
    C   1.0     0.815008     0.337640     0.751875  Biso 1.000000     C
    C   1.0     0.445702     0.301409     0.857368  Biso 1.000000     C
    C   1.0     0.404768     0.256546     0.886896  Biso 1.000000     C
    C   1.0     0.439254     0.156826     0.841319  Biso 1.000000     C
    C   1.0     0.477001     0.204477     0.812845  Biso 1.000000     C
    C   1.0     0.132030     0.339247     0.710063  Biso 1.000000     C
    C   1.0     0.060550     0.285147     0.678573  Biso 1.000000     C
    C   1.0     0.085936     0.238997     0.645672  Biso 1.000000     C
    C   1.0     0.247018     0.297022     0.672376  Biso 1.000000     C
    C   1.0     0.227362     0.345178     0.706686  Biso 1.000000     C
    C   1.0     0.101294     0.189052     0.024300  Biso 1.000000     C
    C   1.0     0.171200     0.180800     0.997391  Biso 1.000000     C
    C   1.0     0.194420     0.117591     0.994921  Biso 1.000000     C
    C   1.0     0.144975     0.064342     0.019332  Biso 1.000000     C
    C   1.0     0.075992     0.076608     0.045557  Biso 1.000000     C
    C   1.0     0.268141     0.106234     0.966439  Biso 1.000000     C
    C   1.0     0.360514     0.133634     0.910364  Biso 1.000000     C
    C   1.0     0.351897     0.035110     0.939660  Biso 1.000000     C
    C   1.0     0.401694     0.182792     0.879125  Biso 1.000000     C
    C   1.0     0.448800     0.870028     0.401597  Biso 1.000000     C
    C   1.0     0.533031     0.931875     0.400576  Biso 1.000000     C
    C   1.0     0.593842     0.969225     0.439095  Biso 1.000000     C
    C   1.0     0.567831     0.942097     0.477126  Biso 1.000000     C
    C   1.0     0.481860     0.880136     0.475591  Biso 1.000000     C
    C   1.0     0.388101     0.655161     0.395206  Biso 1.000000     C
    C   1.0     0.403543     0.597208     0.366832  Biso 1.000000     C
    C   1.0     0.332263     0.550030     0.333297  Biso 1.000000     C
    C   1.0     0.248340     0.563959     0.329434  Biso 1.000000     C
    C   1.0     0.238916     0.623656     0.358687  Biso 1.000000     C
    C   1.0     0.344167     0.486889     0.302243  Biso 1.000000     C
    C   1.0     0.430484     0.416347     0.277905  Biso 1.000000     C
    C   1.0     0.282702     0.386754     0.244410  Biso 1.000000     C
    C   1.0     0.519654     0.400954     0.278529  Biso 1.000000     C
    C   1.0     0.603147     0.449680     0.305566  Biso 1.000000     C
    C   1.0     0.684429     0.432112     0.303623  Biso 1.000000     C
    C   1.0     0.605692     0.322698     0.250487  Biso 1.000000     C
    C   1.0     0.522107     0.336398     0.250374  Biso 1.000000     C
    C   1.0     0.855350     0.300789     0.356405  Biso 1.000000     C
    C   1.0     0.851933     0.256428     0.386215  Biso 1.000000     C
    C   1.0     0.719931     0.155392     0.340257  Biso 1.000000     C
    C   1.0     0.729274     0.202590     0.311542  Biso 1.000000     C
    C   1.0     0.206186     0.338006     0.209101  Biso 1.000000     C
    C   1.0     0.222436     0.282555     0.178154  Biso 1.000000     C
    C   1.0     0.150927     0.236765     0.145202  Biso 1.000000     C
    C   1.0     0.049938     0.297489     0.170876  Biso 1.000000     C
    C   1.0     0.117714     0.345320     0.205244  Biso 1.000000     C
    C   1.0     0.088067     0.188835     0.524902  Biso 1.000000     C
    C   1.0     0.010459     0.180586     0.497597  Biso 1.000000     C
    C   1.0     0.923856     0.117714     0.495121  Biso 1.000000     C
    C   1.0     0.919363     0.064837     0.519980  Biso 1.000000     C
    C   1.0     0.000079     0.077081     0.546566  Biso 1.000000     C
    C   1.0     0.839255     0.106236     0.466239  Biso 1.000000     C
    C   1.0     0.774840     0.133373     0.409823  Biso 1.000000     C
    C   1.0     0.684850     0.034899     0.439060  Biso 1.000000     C
    C   1.0     0.782608     0.182242     0.378393  Biso 1.000000     C
    N   1.0     0.577115     0.155176     0.561465  Biso 1.000000     N
    N   1.0     0.692466     0.331358     0.608769  Biso 1.000000     N
    N   1.0     0.728390     0.554567     0.729107  Biso 1.000000     N
    N   1.0     0.640024     0.630845     0.752865  Biso 1.000000     N
    N   1.0     0.574211     0.524741     0.692966  Biso 1.000000     N
    N   1.0     0.934088     0.756195     0.858750  Biso 1.000000     N
    N   1.0     0.314066     0.630660     0.723258  Biso 1.000000     N
    N   1.0     0.204696     0.725455     0.680561  Biso 1.000000     N
    N   1.0     0.916842     0.861656     0.450683  Biso 1.000000     N
    N   1.0     0.147877     0.848858     0.562363  Biso 1.000000     N
    N   1.0     0.308927     0.926294     0.592363  Biso 1.000000     N
    N   1.0     0.244566     0.949676     0.529971  Biso 1.000000     N
    N   1.0     0.576531     0.155177     0.060122  Biso 1.000000     N
    N   1.0     0.638558     0.331383     0.107310  Biso 1.000000     N
    N   1.0     0.825889     0.553633     0.227952  Biso 1.000000     N
    N   1.0     0.990405     0.629564     0.251718  Biso 1.000000     N
    N   1.0     0.950046     0.523809     0.191580  Biso 1.000000     N
    N   1.0     0.822560     0.755559     0.357678  Biso 1.000000     N
    N   1.0     0.315662     0.629004     0.221730  Biso 1.000000     N
    N   1.0     0.518862     0.723985     0.179288  Biso 1.000000     N
    N   1.0     0.945328     0.861782     0.951677  Biso 1.000000     N
    N   1.0     0.699578     0.848795     0.062075  Biso 1.000000     N
    N   1.0     0.615178     0.925987     0.091679  Biso 1.000000     N
    N   1.0     0.703815     0.949592     0.029583  Biso 1.000000     N
    N   1.0     0.423497     0.844818     0.939885  Biso 1.000000     N
    N   1.0     0.361463     0.668603     0.892699  Biso 1.000000     N
    N   1.0     0.174133     0.446364     0.772051  Biso 1.000000     N
    N   1.0     0.009617     0.370432     0.748286  Biso 1.000000     N
    N   1.0     0.049976     0.476188     0.808423  Biso 1.000000     N
    N   1.0     0.177461     0.244432     0.642328  Biso 1.000000     N
    N   1.0     0.684361     0.370990     0.778276  Biso 1.000000     N
    N   1.0     0.481167     0.276010     0.820721  Biso 1.000000     N
    N   1.0     0.054695     0.138208     0.048332  Biso 1.000000     N
    N   1.0     0.300451     0.151202     0.937935  Biso 1.000000     N
    N   1.0     0.384853     0.074011     0.908331  Biso 1.000000     N
    N   1.0     0.296213     0.050404     0.970426  Biso 1.000000     N
    N   1.0     0.422903     0.844810     0.438542  Biso 1.000000     N
    N   1.0     0.307555     0.668631     0.391237  Biso 1.000000     N
    N   1.0     0.271630     0.445421     0.270900  Biso 1.000000     N
    N   1.0     0.359997     0.369144     0.247141  Biso 1.000000     N
    N   1.0     0.425809     0.475247     0.307041  Biso 1.000000     N
    N   1.0     0.065932     0.243791     0.141258  Biso 1.000000     N
    N   1.0     0.685954     0.369328     0.276750  Biso 1.000000     N
    N   1.0     0.795325     0.274533     0.319446  Biso 1.000000     N
    N   1.0     0.083176     0.138330     0.549323  Biso 1.000000     N
    N   1.0     0.852141     0.151129     0.437644  Biso 1.000000     N
    N   1.0     0.691091     0.073693     0.407644  Biso 1.000000     N
    N   1.0     0.755451     0.050312     0.470036  Biso 1.000000     N
   Zn   1.0     0.710366     0.244501     0.563013  Biso 1.000000    Zn
   Zn   1.0     0.191617     0.659715     0.727610  Biso 1.000000    Zn
   Zn   1.0     0.040811     0.838161     0.907099  Biso 1.000000    Zn
   Zn   1.0     0.534005     0.245294     0.061246  Biso 1.000000    Zn
   Zn   1.0     0.466781     0.657585     0.225894  Biso 1.000000    Zn
   Zn   1.0     0.798352     0.838186     0.405533  Biso 1.000000    Zn
   Zn   1.0     0.466016     0.754698     0.938761  Biso 1.000000    Zn
   Zn   1.0     0.533242     0.342407     0.774113  Biso 1.000000    Zn
   Zn   1.0     0.201665     0.161800     0.594474  Biso 1.000000    Zn
   Zn   1.0     0.289652     0.755483     0.436994  Biso 1.000000    Zn
   Zn   1.0     0.808405     0.340275     0.272397  Biso 1.000000    Zn
   Zn   1.0     0.959209     0.161826     0.092908  Biso 1.000000    Zn
    I   1.0     0.722551     0.279779     0.488514  Biso 1.000000     I
    I   1.0     0.829148     0.206178     0.602081  Biso 1.000000     I
    I   1.0     0.220781     0.751833     0.802392  Biso 1.000000     I
    I   1.0     0.040800     0.537524     0.699912  Biso 1.000000     I
    I   1.0     0.114695     0.950991     0.871123  Biso 1.000000     I
    I   1.0     0.122084     0.771238     0.945615  Biso 1.000000     I
    I   1.0     0.560488     0.281217     0.987040  Biso 1.000000     I
    I   1.0     0.376409     0.208728     0.099835  Biso 1.000000     I
    I   1.0     0.529901     0.749715     0.300739  Biso 1.000000     I
    I   1.0     0.495498     0.535430     0.198011  Biso 1.000000     I
    I   1.0     0.837849     0.951211     0.369696  Biso 1.000000     I
    I   1.0     0.649604     0.771990     0.443867  Biso 1.000000     I
    I   1.0     0.439533     0.718776     0.012968  Biso 1.000000     I
    I   1.0     0.623612     0.791261     0.900171  Biso 1.000000     I
    I   1.0     0.470122     0.250277     0.699269  Biso 1.000000     I
    I   1.0     0.504526     0.464562     0.801996  Biso 1.000000     I
    I   1.0     0.162165     0.048774     0.630311  Biso 1.000000     I
    I   1.0     0.350413     0.227996     0.556141  Biso 1.000000     I
    I   1.0     0.277468     0.720207     0.511493  Biso 1.000000     I
    I   1.0     0.170869     0.793808     0.397927  Biso 1.000000     I
    I   1.0     0.779240     0.248156     0.197615  Biso 1.000000     I
    I   1.0     0.959223     0.462466     0.300097  Biso 1.000000     I
    I   1.0     0.885327     0.048996     0.128885  Biso 1.000000     I
    I   1.0     0.877935     0.228749     0.054392  Biso 1.000000     I
