#======================================================================

# CRYSTAL DATA

#----------------------------------------------------------------------

data_VESTA_phase_1


_pd_phase_name                         MOF
_cell_length_a                         15.15700
_cell_length_b                         19.37300
_cell_length_c                         31.36400
_cell_angle_alpha                      102.26500
_cell_angle_beta                       90.01300
_cell_angle_gamma                      112.74700
_symmetry_space_group_name_H-M         "P 1"
_symmetry_Int_Tables_number            1

loop_
_symmetry_equiv_pos_as_xyz
   "x, y, z"

loop_
   _atom_site_label
   _atom_site_occupancy
   _atom_site_fract_x
   _atom_site_fract_y
   _atom_site_fract_z
   _atom_site_adp_type
   _atom_site_B_iso_or_equiv
   _atom_site_type_symbol
    H   1.0     0.849617     0.767793     0.968980  Biso 1.000000     H
    H   1.0     0.988601     0.777277     0.017467  Biso 1.000000     H
    H   1.0     0.156102     0.991861     0.983813  Biso 1.000000     H
    H   1.0     0.010692     0.973546     0.936114  Biso 1.000000     H
    H   1.0     0.981374     0.834384     0.868071  Biso 1.000000     H
    H   1.0     0.026541     0.748213     0.809515  Biso 1.000000     H
    H   1.0     0.724258     0.608271     0.775670  Biso 1.000000     H
    H   1.0     0.690716     0.698106     0.837657  Biso 1.000000     H
    H   1.0     0.878559     0.399879     0.631454  Biso 1.000000     H
    H   1.0     0.743957     0.296847     0.580752  Biso 1.000000     H
    H   1.0     0.543216     0.373159     0.640480  Biso 1.000000     H
    H   1.0     0.671157     0.481911     0.692862  Biso 1.000000     H
    H   1.0     0.166987     0.694569     0.775954  Biso 1.000000     H
    H   1.0     0.341334     0.715720     0.774953  Biso 1.000000     H
    H   1.0     0.282352     0.529799     0.669604  Biso 1.000000     H
    H   1.0     0.105339     0.501613     0.665831  Biso 1.000000     H
    H   1.0     0.085657     0.633868     0.134651  Biso 1.000000     H
    H   1.0     0.097400     0.715015     0.080100  Biso 1.000000     H
    H   1.0     0.337430     0.895619     0.163158  Biso 1.000000     H
    H   1.0     0.312544     0.809608     0.215825  Biso 1.000000     H
    H   1.0     0.377400     0.046638    -0.003375  Biso 1.000000     H
    H   1.0     0.479117     0.018812     0.117487  Biso 1.000000     H
    H   1.0     0.536278     0.158005    -0.000691  Biso 1.000000     H
    H   1.0     0.633938     0.131413     0.115564  Biso 1.000000     H
    H   1.0     0.915216     0.765250     0.468350  Biso 1.000000     H
    H   1.0     0.786026     0.775032     0.516959  Biso 1.000000     H
    H   1.0     0.834332     0.991572     0.485040  Biso 1.000000     H
    H   1.0     0.960994     0.972845     0.437096  Biso 1.000000     H
    H   1.0     0.855230     0.837159     0.366836  Biso 1.000000     H
    H   1.0     0.724150     0.751695     0.308305  Biso 1.000000     H
    H   1.0     0.882285     0.606829     0.276303  Biso 1.000000     H
    H   1.0     0.000000     0.695987     0.338309  Biso 1.000000     H
    H   1.0     0.521467     0.401148     0.132385  Biso 1.000000     H
    H   1.0     0.551611     0.296749     0.081640  Biso 1.000000     H
    H   1.0     0.828842     0.371610     0.139897  Biso 1.000000     H
    H   1.0     0.811031     0.481628     0.192255  Biso 1.000000     H
    H   1.0     0.526775     0.696274     0.276495  Biso 1.000000     H
    H   1.0     0.373052     0.717126     0.275405  Biso 1.000000     H
    H   1.0     0.248544     0.530964     0.170161  Biso 1.000000     H
    H   1.0     0.397910     0.503066     0.166487  Biso 1.000000     H
    H   1.0     0.548207     0.633248     0.634961  Biso 1.000000     H
    H   1.0     0.617851     0.714720     0.580690  Biso 1.000000     H
    H   1.0     0.554611     0.894820     0.663233  Biso 1.000000     H
    H   1.0     0.493322     0.808498     0.715655  Biso 1.000000     H
    H   1.0     0.671233     0.048512     0.498096  Biso 1.000000     H
    H   1.0     0.533685     0.017483     0.616766  Biso 1.000000     H
    H   1.0     0.623573     0.160320     0.500435  Biso 1.000000     H
    H   1.0     0.491691     0.130768     0.614599  Biso 1.000000     H
    H   1.0     0.084810     0.234729     0.531634  Biso 1.000000     H
    H   1.0     0.213997     0.224946     0.483024  Biso 1.000000     H
    H   1.0     0.165692     0.008406     0.514942  Biso 1.000000     H
    H   1.0     0.039033     0.027134     0.562887  Biso 1.000000     H
    H   1.0     0.144798     0.162821     0.633149  Biso 1.000000     H
    H   1.0     0.275881     0.248288     0.691679  Biso 1.000000     H
    H   1.0     0.117747     0.393155     0.723679  Biso 1.000000     H
    H   1.0    -0.005175     0.303994     0.661675  Biso 1.000000     H
    H   1.0     0.478562     0.598836     0.867598  Biso 1.000000     H
    H   1.0     0.448415     0.703230     0.918345  Biso 1.000000     H
    H   1.0     0.171183     0.628368     0.860090  Biso 1.000000     H
    H   1.0     0.188996     0.518355     0.807728  Biso 1.000000     H
    H   1.0     0.473257     0.303710     0.723488  Biso 1.000000     H
    H   1.0     0.626978     0.282856     0.724582  Biso 1.000000     H
    H   1.0     0.751481     0.469018     0.829826  Biso 1.000000     H
    H   1.0     0.602117     0.496920     0.833495  Biso 1.000000     H
    H   1.0     0.451821     0.366733     0.365025  Biso 1.000000     H
    H   1.0     0.382172     0.285258     0.419294  Biso 1.000000     H
    H   1.0     0.445416     0.105161     0.336749  Biso 1.000000     H
    H   1.0     0.506709     0.191487     0.284330  Biso 1.000000     H
    H   1.0     0.328791     0.951468     0.501886  Biso 1.000000     H
    H   1.0     0.466338     0.982493     0.383216  Biso 1.000000     H
    H   1.0     0.376454     0.839662     0.499550  Biso 1.000000     H
    H   1.0     0.508334     0.869210     0.385385  Biso 1.000000     H
    H   1.0     0.150409     0.232183     0.031007  Biso 1.000000     H
    H   1.0     0.011428     0.222699     0.982517  Biso 1.000000     H
    H   1.0     0.843923     0.008114     0.016168  Biso 1.000000     H
    H   1.0     0.989328     0.026429     0.063870  Biso 1.000000     H
    H   1.0     0.018650     0.165595     0.131915  Biso 1.000000     H
    H   1.0     0.973487     0.251773     0.190469  Biso 1.000000     H
    H   1.0     0.275771     0.391711     0.224312  Biso 1.000000     H
    H   1.0     0.309309     0.301870     0.162327  Biso 1.000000     H
    H   1.0     0.121470     0.600104     0.368530  Biso 1.000000     H
    H   1.0     0.256070     0.703135     0.419233  Biso 1.000000     H
    H   1.0     0.456813     0.626824     0.359505  Biso 1.000000     H
    H   1.0     0.328874     0.518074     0.307122  Biso 1.000000     H
    H   1.0     0.833040     0.305415     0.224030  Biso 1.000000     H
    H   1.0     0.658694     0.284266     0.225033  Biso 1.000000     H
    H   1.0     0.717682     0.470189     0.330380  Biso 1.000000     H
    H   1.0     0.894694     0.498373     0.334152  Biso 1.000000     H
    H   1.0     0.914371     0.366112     0.865336  Biso 1.000000     H
    H   1.0     0.902629     0.284960     0.919884  Biso 1.000000     H
    H   1.0     0.662598     0.104360     0.836824  Biso 1.000000     H
    H   1.0     0.687485     0.190376     0.784159  Biso 1.000000     H
    H   1.0     0.622630     0.953341     0.000000  Biso 1.000000     H
    H   1.0     0.520908     0.981163     0.882495  Biso 1.000000     H
    H   1.0     0.463752     0.841974     0.000000  Biso 1.000000     H
    H   1.0     0.366087     0.868563     0.884420  Biso 1.000000     H
    C   1.0     0.919333     0.815952     0.973022  Biso 1.000000     C
    C   1.0     0.995731     0.821649    -0.000090  Biso 1.000000     C
    C   1.0     0.083141     0.885041     0.003724  Biso 1.000000     C
    C   1.0     0.089442     0.941362     0.980921  Biso 1.000000     C
    C   1.0     0.009792     0.931646     0.954735  Biso 1.000000     C
    C   1.0     0.926499     0.783321     0.847255  Biso 1.000000     C
    C   1.0     0.951480     0.735877     0.814385  Biso 1.000000     C
    C   1.0     0.878733     0.671121     0.788081  Biso 1.000000     C
    C   1.0     0.782977     0.657105     0.795979  Biso 1.000000     C
    C   1.0     0.763970     0.706784     0.830176  Biso 1.000000     C
    C   1.0     0.904629     0.618943     0.753491  Biso 1.000000     C
    C   1.0     0.019403     0.584029     0.720744  Biso 1.000000     C
    C   1.0     0.862313     0.513746     0.696940  Biso 1.000000     C
    C   1.0     0.785607     0.449855     0.666196  Biso 1.000000     C
    C   1.0     0.805659     0.396721     0.634257  Biso 1.000000     C
    C   1.0     0.730443     0.338885     0.605984  Biso 1.000000     C
    C   1.0     0.618671     0.381853     0.639574  Biso 1.000000     C
    C   1.0     0.689782     0.441599     0.668687  Biso 1.000000     C
    C   1.0     0.122676     0.597065     0.720302  Biso 1.000000     C
    C   1.0     0.190182     0.657787     0.751430  Biso 1.000000     C
    C   1.0     0.286429     0.669789     0.750983  Biso 1.000000     C
    C   1.0     0.253477     0.565504     0.691990  Biso 1.000000     C
    C   1.0     0.155689     0.549853     0.690218  Biso 1.000000     C
    C   1.0     0.139897     0.692427     0.139611  Biso 1.000000     C
    C   1.0     0.146506     0.737405     0.109705  Biso 1.000000     C
    C   1.0     0.218790     0.811609     0.117606  Biso 1.000000     C
    C   1.0     0.280887     0.838031     0.155965  Biso 1.000000     C
    C   1.0     0.268245     0.790329     0.184788  Biso 1.000000     C
    C   1.0     0.229735     0.861223     0.086206  Biso 1.000000     C
    C   1.0     0.167076     0.893151     0.031558  Biso 1.000000     C
    C   1.0     0.323322     0.960321     0.057575  Biso 1.000000     C
    C   1.0     0.416769     0.024190     0.056921  Biso 1.000000     C
    C   1.0     0.433018     0.063488     0.023186  Biso 1.000000     C
    C   1.0     0.489825     0.048300     0.090828  Biso 1.000000     C
    C   1.0     0.520138     0.125083     0.024625  Biso 1.000000     C
    C   1.0     0.574678     0.110533     0.090098  Biso 1.000000     C
    C   1.0     0.893987     0.813907     0.472769  Biso 1.000000     C
    C   1.0     0.823450     0.819783     0.499753  Biso 1.000000     C
    C   1.0     0.799863     0.883838     0.504099  Biso 1.000000     C
    C   1.0     0.850089     0.940542     0.481701  Biso 1.000000     C
    C   1.0     0.919802     0.930600     0.455383  Biso 1.000000     C
    C   1.0     0.858057     0.785144     0.346445  Biso 1.000000     C
    C   1.0     0.785884     0.738132     0.313599  Biso 1.000000     C
    C   1.0     0.792755     0.672146     0.287881  Biso 1.000000     C
    C   1.0     0.873258     0.656609     0.296227  Biso 1.000000     C
    C   1.0     0.941679     0.705897     0.330403  Biso 1.000000     C
    C   1.0     0.714742     0.620128     0.253489  Biso 1.000000     C
    C   1.0     0.565203     0.585646     0.221134  Biso 1.000000     C
    C   1.0     0.652033     0.514768     0.197106  Biso 1.000000     C
    C   1.0     0.664510     0.450398     0.166342  Biso 1.000000     C
    C   1.0     0.590942     0.397353     0.134811  Biso 1.000000     C
    C   1.0     0.607543     0.338795     0.106522  Biso 1.000000     C
    C   1.0     0.762387     0.380964     0.139306  Biso 1.000000     C
    C   1.0     0.751781     0.441402     0.168415  Biso 1.000000     C
    C   1.0     0.474836     0.598726     0.220843  Biso 1.000000     C
    C   1.0     0.467250     0.659415     0.251952  Biso 1.000000     C
    C   1.0     0.382714     0.671237     0.251467  Biso 1.000000     C
    C   1.0     0.312711     0.566806     0.192531  Biso 1.000000     C
    C   1.0     0.395127     0.551327     0.190802  Biso 1.000000     C
    C   1.0     0.551747     0.691773     0.639872  Biso 1.000000     C
    C   1.0     0.590277     0.736944     0.610132  Biso 1.000000     C
    C   1.0     0.591187     0.811101     0.617961  Biso 1.000000     C
    C   1.0     0.554412     0.837292     0.656106  Biso 1.000000     C
    C   1.0     0.519213     0.789401     0.684773  Biso 1.000000     C
    C   1.0     0.629955     0.860864     0.586691  Biso 1.000000     C
    C   1.0     0.724276     0.892356     0.532023  Biso 1.000000     C
    C   1.0     0.635102     0.960154     0.558037  Biso 1.000000     C
    C   1.0     0.605524     0.024426     0.557323  Biso 1.000000     C
    C   1.0     0.630713     0.064763     0.524102  Biso 1.000000     C
    C   1.0     0.554294     0.047795     0.590527  Biso 1.000000     C
    C   1.0     0.605187     0.126667     0.525389  Biso 1.000000     C
    C   1.0     0.531763     0.110394     0.589678  Biso 1.000000     C
    C   1.0     0.106041     0.186073     0.527216  Biso 1.000000     C
    C   1.0     0.176573     0.180195     0.500230  Biso 1.000000     C
    C   1.0     0.200162     0.116140     0.495883  Biso 1.000000     C
    C   1.0     0.149935     0.059436     0.518281  Biso 1.000000     C
    C   1.0     0.080227     0.069380     0.544602  Biso 1.000000     C
    C   1.0     0.141974     0.214837     0.653539  Biso 1.000000     C
    C   1.0     0.214147     0.261850     0.686385  Biso 1.000000     C
    C   1.0     0.207272     0.327833     0.712104  Biso 1.000000     C
    C   1.0     0.126773     0.343374     0.703756  Biso 1.000000     C
    C   1.0     0.058351     0.294085     0.669580  Biso 1.000000     C
    C   1.0     0.285280     0.379848     0.746499  Biso 1.000000     C
    C   1.0     0.434818     0.414326     0.778857  Biso 1.000000     C
    C   1.0     0.347983     0.485201     0.802886  Biso 1.000000     C
    C   1.0     0.335515     0.549582     0.833643  Biso 1.000000     C
    C   1.0     0.409085     0.602629     0.865173  Biso 1.000000     C
    C   1.0     0.392487     0.661189     0.893459  Biso 1.000000     C
    C   1.0     0.237642     0.619020     0.860677  Biso 1.000000     C
    C   1.0     0.248245     0.558579     0.831569  Biso 1.000000     C
    C   1.0     0.525192     0.401257     0.779141  Biso 1.000000     C
    C   1.0     0.532780     0.340569     0.748032  Biso 1.000000     C
    C   1.0     0.617316     0.328745     0.748518  Biso 1.000000     C
    C   1.0     0.687316     0.433178     0.807455  Biso 1.000000     C
    C   1.0     0.604902     0.448658     0.809181  Biso 1.000000     C
    C   1.0     0.448285     0.308211     0.360115  Biso 1.000000     C
    C   1.0     0.409745     0.263034     0.389852  Biso 1.000000     C
    C   1.0     0.408843     0.188879     0.382023  Biso 1.000000     C
    C   1.0     0.445613     0.162688     0.343877  Biso 1.000000     C
    C   1.0     0.480821     0.210584     0.315212  Biso 1.000000     C
    C   1.0     0.370070     0.139114     0.413291  Biso 1.000000     C
    C   1.0     0.275748     0.107622     0.467959  Biso 1.000000     C
    C   1.0     0.364924     0.039825     0.441946  Biso 1.000000     C
    C   1.0     0.394500     0.975552     0.442660  Biso 1.000000     C
    C   1.0     0.369311     0.935217     0.475882  Biso 1.000000     C
    C   1.0     0.445730     0.952183     0.409456  Biso 1.000000     C
    C   1.0     0.394841     0.873316     0.474596  Biso 1.000000     C
    C   1.0     0.468264     0.889585     0.410307  Biso 1.000000     C
    C   1.0     0.080692     0.184024     0.026963  Biso 1.000000     C
    C   1.0     0.004297     0.178327     0.000000  Biso 1.000000     C
    C   1.0     0.916885     0.114935     0.996259  Biso 1.000000     C
    C   1.0     0.910583     0.058613     0.019061  Biso 1.000000     C
    C   1.0     0.990231     0.068329     0.045249  Biso 1.000000     C
    C   1.0     0.073526     0.216658     0.152730  Biso 1.000000     C
    C   1.0     0.048547     0.264106     0.185599  Biso 1.000000     C
    C   1.0     0.121296     0.328863     0.211902  Biso 1.000000     C
    C   1.0     0.217052     0.342876     0.204003  Biso 1.000000     C
    C   1.0     0.236056     0.293194     0.169809  Biso 1.000000     C
    C   1.0     0.095401     0.381045     0.246489  Biso 1.000000     C
    C   1.0     0.980628     0.415958     0.279237  Biso 1.000000     C
    C   1.0     0.137717     0.486240     0.303042  Biso 1.000000     C
    C   1.0     0.214423     0.550130     0.333787  Biso 1.000000     C
    C   1.0     0.194370     0.603261     0.365727  Biso 1.000000     C
    C   1.0     0.269586     0.661098     0.394001  Biso 1.000000     C
    C   1.0     0.381358     0.618131     0.360411  Biso 1.000000     C
    C   1.0     0.310248     0.558385     0.331298  Biso 1.000000     C
    C   1.0     0.877355     0.402920     0.279681  Biso 1.000000     C
    C   1.0     0.809847     0.342198     0.248554  Biso 1.000000     C
    C   1.0     0.713601     0.330198     0.249001  Biso 1.000000     C
    C   1.0     0.746557     0.434483     0.307994  Biso 1.000000     C
    C   1.0     0.844343     0.450132     0.309766  Biso 1.000000     C
    C   1.0     0.860134     0.307552     0.860374  Biso 1.000000     C
    C   1.0     0.853522     0.262573     0.890279  Biso 1.000000     C
    C   1.0     0.781239     0.188368     0.882377  Biso 1.000000     C
    C   1.0     0.719141     0.161949     0.844018  Biso 1.000000     C
    C   1.0     0.731785     0.209651     0.815196  Biso 1.000000     C
    C   1.0     0.770291     0.138755     0.913778  Biso 1.000000     C
    C   1.0     0.832952     0.106824     0.968424  Biso 1.000000     C
    C   1.0     0.676705     0.039657     0.942407  Biso 1.000000     C
    C   1.0     0.583258     0.975787     0.943062  Biso 1.000000     C
    C   1.0     0.567011     0.936490     0.976797  Biso 1.000000     C
    C   1.0     0.510201     0.951676     0.909155  Biso 1.000000     C
    C   1.0     0.479892     0.874895     0.975359  Biso 1.000000     C
    C   1.0     0.425349     0.889443     0.909885  Biso 1.000000     C
    N   1.0     0.926088     0.869599     0.950411  Biso 1.000000     N
    N   1.0     0.834554     0.768869     0.855579  Biso 1.000000     N
    N   1.0     0.998638     0.635216     0.750475  Biso 1.000000     N
    N   1.0     0.954449     0.523229     0.692311  Biso 1.000000     N
    N   1.0     0.833704     0.558525     0.727858  Biso 1.000000     N
    N   1.0     0.318385     0.624957     0.721617  Biso 1.000000     N
    N   1.0     0.638389     0.331156     0.608498  Biso 1.000000     N
    N   1.0     0.199541     0.718237     0.176732  Biso 1.000000     N
    N   1.0     0.152864     0.845632     0.058816  Biso 1.000000     N
    N   1.0     0.251989     0.948616     0.028026  Biso 1.000000     N
    N   1.0     0.315469     0.919666     0.088206  Biso 1.000000     N
    N   1.0     0.589730     0.148780     0.057646  Biso 1.000000     N
    N   1.0     0.941111     0.867965     0.450552  Biso 1.000000     N
    N   1.0     0.934136     0.769069     0.355311  Biso 1.000000     N
    N   1.0     0.637036     0.636779     0.250683  Biso 1.000000     N
    N   1.0     0.569531     0.524686     0.192661  Biso 1.000000     N
    N   1.0     0.725297     0.559396     0.227866  Biso 1.000000     N
    N   1.0     0.306467     0.626271     0.222093  Biso 1.000000     N
    N   1.0     0.691535     0.330313     0.108641  Biso 1.000000     N
    N   1.0     0.516904     0.717389     0.676798  Biso 1.000000     N
    N   1.0     0.691232     0.844946     0.559318  Biso 1.000000     N
    N   1.0     0.694630     0.948060     0.528483  Biso 1.000000     N
    N   1.0     0.602488     0.919588     0.588683  Biso 1.000000     N
    N   1.0     0.557104     0.149661     0.557750  Biso 1.000000     N
    N   1.0     0.058912     0.132012     0.549431  Biso 1.000000     N
    N   1.0     0.065896     0.230913     0.644673  Biso 1.000000     N
    N   1.0     0.363001     0.363213     0.749294  Biso 1.000000     N
    N   1.0     0.430506     0.475307     0.807316  Biso 1.000000     N
    N   1.0     0.274738     0.440594     0.772112  Biso 1.000000     N
    N   1.0     0.693560     0.373712     0.777893  Biso 1.000000     N
    N   1.0     0.308489     0.669664     0.891346  Biso 1.000000     N
    N   1.0     0.483122     0.282593     0.323187  Biso 1.000000     N
    N   1.0     0.308793     0.155032     0.440664  Biso 1.000000     N
    N   1.0     0.305395     0.051919     0.471500  Biso 1.000000     N
    N   1.0     0.397539     0.080392     0.411300  Biso 1.000000     N
    N   1.0     0.442922     0.850320     0.442235  Biso 1.000000     N
    N   1.0     0.073934     0.130377     0.049576  Biso 1.000000     N
    N   1.0     0.165471     0.231106     0.144408  Biso 1.000000     N
    N   1.0     0.001392     0.364767     0.249509  Biso 1.000000     N
    N   1.0     0.045581     0.476752     0.307675  Biso 1.000000     N
    N   1.0     0.166326     0.441458     0.272126  Biso 1.000000     N
    N   1.0     0.681647     0.375029     0.278368  Biso 1.000000     N
    N   1.0     0.361639     0.668826     0.391489  Biso 1.000000     N
    N   1.0     0.800485     0.281746     0.823254  Biso 1.000000     N
    N   1.0     0.847164     0.154342     0.941165  Biso 1.000000     N
    N   1.0     0.748039     0.051358     0.971954  Biso 1.000000     N
    N   1.0     0.684558     0.080309     0.911776  Biso 1.000000     N
    N   1.0     0.410296     0.851199     0.942339  Biso 1.000000     N
   Zn   1.0     0.809859     0.849832     0.905430  Biso 1.000000    Zn
   Zn   1.0     0.468490     0.651285     0.723976  Biso 1.000000    Zn
   Zn   1.0     0.529275     0.248564     0.561409  Biso 1.000000    Zn
   Zn   1.0     0.038306     0.848750     0.405574  Biso 1.000000    Zn
   Zn   1.0     0.182021     0.652146     0.224016  Biso 1.000000    Zn
   Zn   1.0     0.716514     0.246554     0.061405  Biso 1.000000    Zn
   Zn   1.0     0.961726     0.151233     0.594415  Biso 1.000000    Zn
   Zn   1.0     0.818008     0.347842     0.775975  Biso 1.000000    Zn
   Zn   1.0     0.283514     0.753426     0.938584  Biso 1.000000    Zn
   Zn   1.0     0.190158     0.150135     0.094560  Biso 1.000000    Zn
   Zn   1.0     0.531545     0.348706     0.276014  Biso 1.000000    Zn
   Zn   1.0     0.470753     0.751421     0.438580  Biso 1.000000    Zn
    I   1.0     0.853851     0.968190     0.873207  Biso 1.000000     I
    I   1.0     0.659411     0.778122     0.941029  Biso 1.000000     I
    I   1.0     0.540305     0.745992     0.798148  Biso 1.000000     I
    I   1.0     0.486531     0.523633     0.693358  Biso 1.000000     I
    I   1.0     0.373232     0.226171     0.599811  Biso 1.000000     I
    I   1.0     0.569066     0.290253     0.489248  Biso 1.000000     I
    I   1.0     0.113104     0.968563     0.374730  Biso 1.000000     I
    I   1.0     0.117175     0.776557     0.441196  Biso 1.000000     I
    I   1.0     0.203038     0.746516     0.298215  Biso 1.000000     I
    I   1.0     0.037818     0.524521     0.193148  Biso 1.000000     I
    I   1.0     0.848133     0.221363     0.099742  Biso 1.000000     I
    I   1.0     0.719722     0.289037     0.989403  Biso 1.000000     I
    I   1.0     0.886923     0.031414     0.625253  Biso 1.000000     I
    I   1.0     0.882850     0.223420     0.558791  Biso 1.000000     I
    I   1.0     0.797000     0.253477     0.701773  Biso 1.000000     I
    I   1.0     0.962205     0.475469     0.806842  Biso 1.000000     I
    I   1.0     0.151891     0.778613     0.900246  Biso 1.000000     I
    I   1.0     0.280316     0.710941     0.010583  Biso 1.000000     I
    I   1.0     0.146159     0.031774     0.126779  Biso 1.000000     I
    I   1.0     0.340608     0.221845     0.058961  Biso 1.000000     I
    I   1.0     0.459725     0.254001     0.201841  Biso 1.000000     I
    I   1.0     0.513504     0.476356     0.306633  Biso 1.000000     I
    I   1.0     0.626794     0.773808     0.400177  Biso 1.000000     I
    I   1.0     0.430953     0.709727     0.510739  Biso 1.000000     I
