#======================================================================

# CRYSTAL DATA

#----------------------------------------------------------------------

data_VESTA_phase_1


_pd_phase_name                         MOF
_cell_length_a                         15.10100
_cell_length_b                         18.65300
_cell_length_c                         30.24000
_cell_angle_alpha                      100.15500
_cell_angle_beta                       90.00000
_cell_angle_gamma                      113.87800
_symmetry_space_group_name_H-M         "P 1"
_symmetry_Int_Tables_number            1

loop_
_symmetry_equiv_pos_as_xyz
   "x, y, z"

loop_
   _atom_site_label
   _atom_site_occupancy
   _atom_site_fract_x
   _atom_site_fract_y
   _atom_site_fract_z
   _atom_site_adp_type
   _atom_site_B_iso_or_equiv
   _atom_site_type_symbol
    H   1.0     0.979519     0.009936     0.584219  Biso 1.000000     H
    H   1.0     0.833958    -0.011921     0.533588  Biso 1.000000     H
    H   1.0     0.004562     0.221399     0.503307  Biso 1.000000     H
    H   1.0     0.143896     0.233563     0.554360  Biso 1.000000     H
    H   1.0     0.574592     0.000000     0.382126  Biso 1.000000     H
    H   1.0     0.898939     0.278120     0.431028  Biso 1.000000     H
    H   1.0     0.911784     0.366785     0.375104  Biso 1.000000     H
    H   1.0     0.650277     0.095917     0.348664  Biso 1.000000     H
    H   1.0    -0.005712     0.320700     0.168321  Biso 1.000000     H
    H   1.0     0.119571     0.414306     0.230379  Biso 1.000000     H
    H   1.0     0.282542     0.270524     0.196999  Biso 1.000000     H
    H   1.0     0.149272     0.180702     0.138714  Biso 1.000000     H
    H   1.0     0.197698     0.544791     0.315878  Biso 1.000000     H
    H   1.0     0.183168     0.658574     0.368675  Biso 1.000000     H
    H   1.0     0.464259     0.735428     0.425882  Biso 1.000000     H
    H   1.0     0.490679     0.626912     0.375015  Biso 1.000000     H
    H   1.0     0.611050     0.517506     0.341557  Biso 1.000000     H
    H   1.0     0.755976     0.482672     0.338426  Biso 1.000000     H
    H   1.0     0.620007     0.290374     0.233695  Biso 1.000000     H
    H   1.0     0.470768     0.317953     0.231887  Biso 1.000000     H
    H   1.0     0.467673     0.891388     0.517211  Biso 1.000000     H
    H   1.0     0.627506     0.000000     0.522952  Biso 1.000000     H
    H   1.0     0.417721     0.886929     0.381860  Biso 1.000000     H
    H   1.0     0.676092     0.189486     0.294602  Biso 1.000000     H
    H   1.0     0.033133     0.031985     0.069906  Biso 1.000000     H
    H   1.0     0.156910     0.010327     0.019253  Biso 1.000000     H
    H   1.0     0.201603     0.198690     0.000000  Biso 1.000000     H
    H   1.0     0.095871     0.253293     0.037742  Biso 1.000000     H
    H   1.0     0.409267     0.982976     0.896242  Biso 1.000000     H
    H   1.0     0.359332     0.256799     0.945371  Biso 1.000000     H
    H   1.0     0.433803     0.344622     0.888899  Biso 1.000000     H
    H   1.0     0.421504     0.072821     0.862273  Biso 1.000000     H
    H   1.0     0.313716     0.301033     0.682727  Biso 1.000000     H
    H   1.0     0.280822     0.394214     0.744649  Biso 1.000000     H
    H   1.0     0.966342     0.244340     0.713971  Biso 1.000000     H
    H   1.0     0.019792     0.155029     0.655847  Biso 1.000000     H
    H   1.0     0.332290     0.524124     0.830586  Biso 1.000000     H
    H   1.0     0.459593     0.638428     0.883617  Biso 1.000000     H
    H   1.0     0.253301     0.712888     0.940591  Biso 1.000000     H
    H   1.0     0.119343     0.603953     0.889385  Biso 1.000000     H
    H   1.0     0.881961     0.494438     0.855315  Biso 1.000000     H
    H   1.0     0.702219     0.459458     0.851668  Biso 1.000000     H
    H   1.0     0.647245     0.267546     0.746857  Biso 1.000000     H
    H   1.0     0.824177     0.295294     0.745551  Biso 1.000000     H
    H   1.0     0.429812     0.914679     0.002478  Biso 1.000000     H
    H   1.0     0.390763     0.000000     0.008046  Biso 1.000000     H
    H   1.0     0.446277     0.863248     0.896168  Biso 1.000000     H
    H   1.0     0.488155     0.165711     0.807754  Biso 1.000000     H
    H   1.0     0.974378     0.997846     0.960023  Biso 1.000000     H
    H   1.0     0.850604     0.000000     0.000000  Biso 1.000000     H
    H   1.0     0.805919     0.831145     0.013462  Biso 1.000000     H
    H   1.0     0.911647     0.776541     0.992189  Biso 1.000000     H
    H   1.0     0.598272     0.046872     0.133691  Biso 1.000000     H
    H   1.0     0.648192     0.773044     0.084561  Biso 1.000000     H
    H   1.0     0.573724     0.685219     0.141033  Biso 1.000000     H
    H   1.0     0.586029     0.957022     0.167663  Biso 1.000000     H
    H   1.0     0.693802     0.728792     0.347207  Biso 1.000000     H
    H   1.0     0.726712     0.635621     0.285284  Biso 1.000000     H
    H   1.0     0.041183     0.785534     0.315956  Biso 1.000000     H
    H   1.0     0.987716     0.874833     0.374079  Biso 1.000000     H
    H   1.0     0.675255     0.505738     0.199340  Biso 1.000000     H
    H   1.0     0.547951     0.391433     0.146312  Biso 1.000000     H
    H   1.0     0.754239     0.316966     0.089339  Biso 1.000000     H
    H   1.0     0.888198     0.425904     0.140541  Biso 1.000000     H
    H   1.0     0.125575     0.535424     0.174620  Biso 1.000000     H
    H   1.0     0.305316     0.570396     0.178269  Biso 1.000000     H
    H   1.0     0.360299     0.762317     0.283076  Biso 1.000000     H
    H   1.0     0.183367     0.734578     0.284379  Biso 1.000000     H
    H   1.0     0.577717     0.115163     0.000000  Biso 1.000000     H
    H   1.0     0.616764    -0.005488     0.000000  Biso 1.000000     H
    H   1.0     0.561266     0.166601     0.133765  Biso 1.000000     H
    H   1.0     0.519382     0.864132     0.222182  Biso 1.000000     H
    H   1.0     0.027974     0.000000     0.445714  Biso 1.000000     H
    H   1.0     0.173539     0.000000     0.496343  Biso 1.000000     H
    H   1.0     0.000000     0.808439     0.526620  Biso 1.000000     H
    H   1.0     0.863603     0.796277     0.475570  Biso 1.000000     H
    H   1.0     0.432905     0.023119     0.647802  Biso 1.000000     H
    H   1.0     0.108563     0.751717     0.598899  Biso 1.000000     H
    H   1.0     0.095713     0.663054     0.654824  Biso 1.000000     H
    H   1.0     0.357226     0.933919     0.681261  Biso 1.000000     H
    H   1.0     0.000000     0.709136     0.861605  Biso 1.000000     H
    H   1.0     0.887926     0.615535     0.799545  Biso 1.000000     H
    H   1.0     0.724969     0.759328     0.832926  Biso 1.000000     H
    H   1.0     0.858240     0.849144     0.891211  Biso 1.000000     H
    H   1.0     0.809803     0.485057     0.714046  Biso 1.000000     H
    H   1.0     0.824331     0.371273     0.661249  Biso 1.000000     H
    H   1.0     0.543234     0.294412     0.604047  Biso 1.000000     H
    H   1.0     0.516817     0.402931     0.654914  Biso 1.000000     H
    H   1.0     0.396451     0.512339     0.688371  Biso 1.000000     H
    H   1.0     0.251523     0.547171     0.691502  Biso 1.000000     H
    H   1.0     0.387496     0.739477     0.796229  Biso 1.000000     H
    H   1.0     0.536738     0.711901     0.798036  Biso 1.000000     H
    H   1.0     0.539830     0.138450     0.512717  Biso 1.000000     H
    H   1.0     0.379998     0.017895     0.506975  Biso 1.000000     H
    H   1.0     0.589773     0.142912     0.648069  Biso 1.000000     H
    H   1.0     0.331407     0.840353     0.735326  Biso 1.000000     H
    C   1.0     0.979252     0.054952     0.565572  Biso 1.000000     C
    C   1.0     0.899480     0.043286     0.537776  Biso 1.000000     C
    C   1.0     0.904460     0.103604     0.514799  Biso 1.000000     C
    C   1.0    -0.001285     0.173496     0.520663  Biso 1.000000     C
    C   1.0     0.075248     0.180676     0.549053  Biso 1.000000     C
    C   1.0     0.821549     0.092582     0.484185  Biso 1.000000     C
    C   1.0     0.667000     0.017777     0.454498  Biso 1.000000     C
    C   1.0     0.761735     0.125853     0.426021  Biso 1.000000     C
    C   1.0     0.611557     0.000000     0.453046  Biso 1.000000     C
    C   1.0     0.552442     0.983336     0.412731  Biso 1.000000     C
    C   1.0     0.773365     0.180062     0.393888  Biso 1.000000     C
    C   1.0     0.848171     0.256983     0.401273  Biso 1.000000     C
    C   1.0     0.855343     0.306118     0.370629  Biso 1.000000     C
    C   1.0     0.709060     0.155393     0.355359  Biso 1.000000     C
    C   1.0     0.059472     0.312151     0.175981  Biso 1.000000     C
    C   1.0     0.129353     0.364030     0.210120  Biso 1.000000     C
    C   1.0     0.211750     0.349867     0.218144  Biso 1.000000     C
    C   1.0     0.219312     0.282989     0.192045  Biso 1.000000     C
    C   1.0     0.145716     0.233434     0.159318  Biso 1.000000     C
    C   1.0     0.291010     0.403297     0.252842  Biso 1.000000     C
    C   1.0     0.356133     0.510171     0.310371  Biso 1.000000     C
    C   1.0     0.440386     0.435873     0.286403  Biso 1.000000     C
    C   1.0     0.345668     0.576676     0.341395  Biso 1.000000     C
    C   1.0     0.258309     0.586235     0.339660  Biso 1.000000     C
    C   1.0     0.249524     0.648613     0.369026  Biso 1.000000     C
    C   1.0     0.406505     0.691886     0.401274  Biso 1.000000     C
    C   1.0     0.421158     0.631180     0.372814  Biso 1.000000     C
    C   1.0     0.528709     0.419378     0.287277  Biso 1.000000     C
    C   1.0     0.610354     0.466499     0.317423  Biso 1.000000     C
    C   1.0     0.690288     0.447135     0.316058  Biso 1.000000     C
    C   1.0     0.613942     0.339281     0.257404  Biso 1.000000     C
    C   1.0     0.531814     0.354917     0.256506  Biso 1.000000     C
    C   1.0     0.494480     0.919679     0.488385  Biso 1.000000     C
    C   1.0     0.582130     0.986102     0.491369  Biso 1.000000     C
    C   1.0     0.466328     0.916757     0.412358  Biso 1.000000     C
    C   1.0     0.722185     0.207322     0.325833  Biso 1.000000     C
    C   1.0     0.077275     0.076529     0.050725  Biso 1.000000     C
    C   1.0     0.145434     0.064976     0.022925  Biso 1.000000     C
    C   1.0     0.178059     0.082146     0.000000  Biso 1.000000     C
    C   1.0     0.160772     0.151318     0.000000  Biso 1.000000     C
    C   1.0     0.112760     0.200974     0.032919  Biso 1.000000     C
    C   1.0     0.249992     0.071178     0.998586  Biso 1.000000     C
    C   1.0     0.329689    -0.003679     0.968935  Biso 1.000000     C
    C   1.0     0.342568     0.104029     0.940218  Biso 1.000000     C
    C   1.0     0.389040     0.997985     0.967587  Biso 1.000000     C
    C   1.0     0.409862     0.960665     0.927084  Biso 1.000000     C
    C   1.0     0.384729     0.157893     0.907880  Biso 1.000000     C
    C   1.0     0.387790     0.235116     0.915361  Biso 1.000000     C
    C   1.0     0.429028     0.283793     0.884420  Biso 1.000000     C
    C   1.0     0.422933     0.132540     0.869032  Biso 1.000000     C
    C   1.0     0.239887     0.291078     0.690952  Biso 1.000000     C
    C   1.0     0.221182     0.342698     0.724986  Biso 1.000000     C
    C   1.0     0.124467     0.326811     0.733607  Biso 1.000000     C
    C   1.0     0.050673     0.258245     0.708422  Biso 1.000000     C
    C   1.0     0.075464     0.209034     0.675790  Biso 1.000000     C
    C   1.0     0.097893     0.380367     0.767881  Biso 1.000000     C
    C   1.0     0.138745     0.487976     0.824862  Biso 1.000000     C
    C   1.0     0.971865     0.413016     0.800633  Biso 1.000000     C
    C   1.0     0.215243     0.554835     0.855932  Biso 1.000000     C
    C   1.0     0.312470     0.565181     0.854346  Biso 1.000000     C
    C   1.0     0.383058     0.627807     0.883846  Biso 1.000000     C
    C   1.0     0.268188     0.669754     0.915968  Biso 1.000000     C
    C   1.0     0.193402     0.608837     0.887331  Biso 1.000000     C
    C   1.0     0.866957     0.396468     0.801076  Biso 1.000000     C
    C   1.0     0.831970     0.443469     0.831053  Biso 1.000000     C
    C   1.0     0.732633     0.424020     0.829390  Biso 1.000000     C
    C   1.0     0.701913     0.316407     0.770714  Biso 1.000000     C
    C   1.0     0.799757     0.332107     0.770112  Biso 1.000000     C
    C   1.0     0.408388     0.899491     0.000000  Biso 1.000000     C
    C   1.0     0.387306     0.965965     0.000000  Biso 1.000000     C
    C   1.0     0.429350     0.894094     0.926832  Biso 1.000000     C
    C   1.0     0.461090     0.184061     0.839239  Biso 1.000000     C
    C   1.0     0.930234     0.953301     0.979203  Biso 1.000000     C
    C   1.0     0.862088     0.964861     0.000000  Biso 1.000000     C
    C   1.0     0.829450     0.947684     0.000726  Biso 1.000000     C
    C   1.0     0.846755     0.878520    -0.004474  Biso 1.000000     C
    C   1.0     0.894752     0.828857     0.997009  Biso 1.000000     C
    C   1.0     0.757537     0.958664     0.031349  Biso 1.000000     C
    C   1.0     0.677844     0.000000     0.060999  Biso 1.000000     C
    C   1.0     0.664963     0.925816     0.089718  Biso 1.000000     C
    C   1.0     0.618480     0.031853     0.062344  Biso 1.000000     C
    C   1.0     0.597683     0.069184     0.102849  Biso 1.000000     C
    C   1.0     0.622788     0.871945     0.122051  Biso 1.000000     C
    C   1.0     0.619744     0.794729     0.114574  Biso 1.000000     C
    C   1.0     0.578494     0.746047     0.145512  Biso 1.000000     C
    C   1.0     0.584607     0.897306     0.160905  Biso 1.000000     C
    C   1.0     0.767633     0.738750     0.338985  Biso 1.000000     C
    C   1.0     0.786346     0.687154     0.304938  Biso 1.000000     C
    C   1.0     0.883065     0.703035     0.296330  Biso 1.000000     C
    C   1.0     0.956849     0.771628     0.321498  Biso 1.000000     C
    C   1.0     0.932051     0.820816     0.354143  Biso 1.000000     C
    C   1.0     0.909645     0.649504     0.262040  Biso 1.000000     C
    C   1.0     0.868801     0.541894     0.205061  Biso 1.000000     C
    C   1.0     0.035679     0.616862     0.229290  Biso 1.000000     C
    C   1.0     0.792299     0.475015     0.174002  Biso 1.000000     C
    C   1.0     0.695077     0.464690     0.175574  Biso 1.000000     C
    C   1.0     0.624483     0.402044     0.146086  Biso 1.000000     C
    C   1.0     0.739349     0.360095     0.113965  Biso 1.000000     C
    C   1.0     0.814143     0.421031     0.142590  Biso 1.000000     C
    C   1.0     0.140582     0.633389     0.228863  Biso 1.000000     C
    C   1.0     0.175570     0.586403     0.198874  Biso 1.000000     C
    C   1.0     0.274902     0.605830     0.200550  Biso 1.000000     C
    C   1.0     0.305627     0.713449     0.259223  Biso 1.000000     C
    C   1.0     0.207788     0.697771     0.259813  Biso 1.000000     C
    C   1.0     0.599136     0.130351     0.026587  Biso 1.000000     C
    C   1.0     0.620231     0.063882     0.023704  Biso 1.000000     C
    C   1.0     0.578182     0.135749     0.103100  Biso 1.000000     C
    C   1.0     0.546438     0.845781     0.190695  Biso 1.000000     C
    C   1.0     0.028243     0.974889     0.464359  Biso 1.000000     C
    C   1.0     0.108015     0.986556     0.492156  Biso 1.000000     C
    C   1.0     0.103040     0.926235     0.515129  Biso 1.000000     C
    C   1.0     0.000000     0.856344     0.509267  Biso 1.000000     C
    C   1.0     0.932251     0.849163     0.480876  Biso 1.000000     C
    C   1.0     0.185951     0.937257     0.545743  Biso 1.000000     C
    C   1.0     0.340502     0.000000     0.575428  Biso 1.000000     C
    C   1.0     0.245767     0.903983     0.603905  Biso 1.000000     C
    C   1.0     0.395945     0.010431     0.576880  Biso 1.000000     C
    C   1.0     0.455056     0.046503     0.617197  Biso 1.000000     C
    C   1.0     0.234138     0.849774     0.636037  Biso 1.000000     C
    C   1.0     0.159329     0.772855     0.628654  Biso 1.000000     C
    C   1.0     0.152156     0.723721     0.659299  Biso 1.000000     C
    C   1.0     0.298441     0.874444     0.674568  Biso 1.000000     C
    C   1.0     0.948018     0.717677     0.853951  Biso 1.000000     C
    C   1.0     0.878164     0.665828     0.819794  Biso 1.000000     C
    C   1.0     0.795738     0.679964     0.811791  Biso 1.000000     C
    C   1.0     0.788212     0.746875     0.837868  Biso 1.000000     C
    C   1.0     0.861782     0.796401     0.870614  Biso 1.000000     C
    C   1.0     0.716510     0.626568     0.777071  Biso 1.000000     C
    C   1.0     0.651378     0.519689     0.719547  Biso 1.000000     C
    C   1.0     0.567130     0.593993     0.743511  Biso 1.000000     C
    C   1.0     0.661819     0.453154     0.688540  Biso 1.000000     C
    C   1.0     0.749201     0.443627     0.690255  Biso 1.000000     C
    C   1.0     0.757968     0.381224     0.660906  Biso 1.000000     C
    C   1.0     0.600984     0.337948     0.628659  Biso 1.000000     C
    C   1.0     0.586349     0.398678     0.657104  Biso 1.000000     C
    C   1.0     0.478782     0.610455     0.742659  Biso 1.000000     C
    C   1.0     0.397160     0.563363     0.712495  Biso 1.000000     C
    C   1.0     0.317204     0.582700     0.713876  Biso 1.000000     C
    C   1.0     0.393553     0.690559     0.772527  Biso 1.000000     C
    C   1.0     0.475703     0.674950     0.773409  Biso 1.000000     C
    C   1.0     0.513022     0.110159     0.541543  Biso 1.000000     C
    C   1.0     0.425372     0.043736     0.538558  Biso 1.000000     C
    C   1.0     0.541170     0.113082     0.617570  Biso 1.000000     C
    C   1.0     0.285315     0.822516     0.704094  Biso 1.000000     C
    N   1.0     0.070253     0.122585     0.571313  Biso 1.000000     N
    N   1.0     0.736077     0.031693     0.486797  Biso 1.000000     N
    N   1.0     0.676130     0.062348     0.422960  Biso 1.000000     N
    N   1.0     0.837660     0.142781     0.455252  Biso 1.000000     N
    N   1.0     0.067454     0.247909     0.150854  Biso 1.000000     N
    N   1.0     0.368176     0.385380     0.255723  Biso 1.000000     N
    N   1.0     0.437546     0.498230     0.315489  Biso 1.000000     N
    N   1.0     0.282021     0.465686     0.278910  Biso 1.000000     N
    N   1.0     0.322397     0.700815     0.399523  Biso 1.000000     N
    N   1.0     0.692138     0.384080     0.286802  Biso 1.000000     N
    N   1.0     0.793680     0.281891     0.333293  Biso 1.000000     N
    N   1.0     0.437086     0.885692     0.449623  Biso 1.000000     N
    N   1.0     0.061104     0.143510     0.055865  Biso 1.000000     N
    N   1.0     0.274809     0.010456     0.000000  Biso 1.000000     N
    N   1.0     0.364658     0.040528     0.937201  Biso 1.000000     N
    N   1.0     0.283733     0.121114     0.969492  Biso 1.000000     N
    N   1.0     0.168247     0.225415     0.666556  Biso 1.000000     N
    N   1.0     0.994113     0.362112     0.770491  Biso 1.000000     N
    N   1.0     0.045227     0.475880     0.829582  Biso 1.000000     N
    N   1.0     0.168909     0.443333     0.793783  Biso 1.000000     N
    N   1.0     0.361508     0.679434     0.914377  Biso 1.000000     N
    N   1.0     0.668036     0.361012     0.799989  Biso 1.000000     N
    N   1.0     0.464940     0.258875     0.846746  Biso 1.000000     N
    N   1.0     0.429672     0.864299     0.964391  Biso 1.000000     N
    N   1.0     0.946414     0.886325     0.974068  Biso 1.000000     N
    N   1.0     0.732708     0.000000     0.028619  Biso 1.000000     N
    N   1.0     0.642859     0.989309     0.092729  Biso 1.000000     N
    N   1.0     0.723783     0.908721     0.060439  Biso 1.000000     N
    N   1.0     0.839264     0.804435     0.363369  Biso 1.000000     N
    N   1.0     0.013425     0.667748     0.259443  Biso 1.000000     N
    N   1.0     0.962318     0.553980     0.200351  Biso 1.000000     N
    N   1.0     0.838632     0.586521     0.236148  Biso 1.000000     N
    N   1.0     0.646032     0.350427     0.115548  Biso 1.000000     N
    N   1.0     0.339503     0.668853     0.229941  Biso 1.000000     N
    N   1.0     0.542594     0.770969     0.183189  Biso 1.000000     N
    N   1.0     0.577863     0.165547     0.065542  Biso 1.000000     N
    N   1.0     0.937242     0.907257     0.458619  Biso 1.000000     N
    N   1.0     0.271423     0.998146     0.543130  Biso 1.000000     N
    N   1.0     0.331373     0.967487     0.606965  Biso 1.000000     N
    N   1.0     0.169842     0.887057     0.574674  Biso 1.000000     N
    N   1.0     0.940061     0.781941     0.879065  Biso 1.000000     N
    N   1.0     0.639321     0.644460     0.774207  Biso 1.000000     N
    N   1.0     0.569945     0.531607     0.714444  Biso 1.000000     N
    N   1.0     0.725471     0.564151     0.751020  Biso 1.000000     N
    N   1.0     0.685105     0.329037     0.630399  Biso 1.000000     N
    N   1.0     0.315370     0.645775     0.743120  Biso 1.000000     N
    N   1.0     0.213817     0.747948     0.696635  Biso 1.000000     N
    N   1.0     0.570412     0.144148     0.580306  Biso 1.000000     N
   Zn   1.0     0.301844     0.789354     0.446123  Biso 1.000000    Zn
   Zn   1.0     0.190497     0.142399     0.615972  Biso 1.000000    Zn
   Zn   1.0     0.812714     0.352966     0.284176  Biso 1.000000    Zn
   Zn   1.0     0.469446     0.768577     0.961128  Biso 1.000000    Zn
   Zn   1.0     0.952914     0.163658     0.100941  Biso 1.000000    Zn
   Zn   1.0     0.515674     0.329225     0.797231  Biso 1.000000    Zn
   Zn   1.0     0.538072     0.261264     0.068804  Biso 1.000000    Zn
   Zn   1.0     0.054586     0.866175     0.928987  Biso 1.000000    Zn
   Zn   1.0     0.491846     0.700614     0.232701  Biso 1.000000    Zn
   Zn   1.0     0.705650     0.240486     0.583806  Biso 1.000000    Zn
   Zn   1.0     0.816997     0.887436     0.413958  Biso 1.000000    Zn
   Zn   1.0     0.194778     0.676873     0.745753  Biso 1.000000    Zn
    I   1.0     0.146629     0.016708     0.649262  Biso 1.000000     I
    I   1.0     0.338767     0.216747     0.574930  Biso 1.000000     I
    I   1.0     0.785254     0.255487     0.208512  Biso 1.000000     I
    I   1.0     0.963834     0.483577     0.312242  Biso 1.000000     I
    I   1.0     0.182888     0.826338     0.403518  Biso 1.000000     I
    I   1.0     0.282370     0.745890     0.522391  Biso 1.000000     I
    I   1.0     0.872882     0.039146     0.135362  Biso 1.000000     I
    I   1.0     0.877756     0.237225     0.059952  Biso 1.000000     I
    I   1.0     0.446646     0.231341     0.721708  Biso 1.000000     I
    I   1.0     0.494010     0.459409     0.825169  Biso 1.000000     I
    I   1.0     0.626137     0.807063     0.918920  Biso 1.000000     I
    I   1.0     0.468813     0.768815     0.007799  Biso 1.000000     I
    I   1.0     0.134627     0.990693     0.894571  Biso 1.000000     I
    I   1.0     0.129760     0.792610     0.969969  Biso 1.000000     I
    I   1.0     0.560892     0.798499     0.308225  Biso 1.000000     I
    I   1.0     0.513512     0.570431     0.204760  Biso 1.000000     I
    I   1.0     0.381390     0.222794     0.111016  Biso 1.000000     I
    I   1.0     0.538713     0.261022     0.000000  Biso 1.000000     I
    I   1.0     0.860864     0.000000     0.380666  Biso 1.000000     I
    I   1.0     0.668728     0.813083     0.454999  Biso 1.000000     I
    I   1.0     0.222244     0.774355     0.821417  Biso 1.000000     I
    I   1.0     0.043664     0.546261     0.717683  Biso 1.000000     I
    I   1.0     0.824609     0.203508     0.626415  Biso 1.000000     I
    I   1.0     0.725135     0.283946     0.507538  Biso 1.000000     I
