#======================================================================

# CRYSTAL DATA

#----------------------------------------------------------------------

data_VESTA_phase_1


_pd_phase_name                         MOF
_cell_length_a                         16.79100
_cell_length_b                         12.90900
_cell_length_c                         12.57200
_cell_angle_alpha                      64.45200
_cell_angle_beta                       87.97500
_cell_angle_gamma                      71.72400
_symmetry_space_group_name_H-M         "P 1"
_symmetry_Int_Tables_number            1

loop_
_symmetry_equiv_pos_as_xyz
   "x, y, z"

loop_
   _atom_site_label
   _atom_site_occupancy
   _atom_site_fract_x
   _atom_site_fract_y
   _atom_site_fract_z
   _atom_site_adp_type
   _atom_site_B_iso_or_equiv
   _atom_site_type_symbol
    H   1.0     0.245920     0.808809     0.423682  Biso 1.000000     H
    H   1.0     0.745908     0.808808     0.423683  Biso 1.000000     H
    H   1.0     0.229572     0.788957     0.570361  Biso 1.000000     H
    H   1.0     0.729560     0.788956     0.570362  Biso 1.000000     H
    H   1.0     0.248771     0.663082     0.536246  Biso 1.000000     H
    H   1.0     0.748759     0.663082     0.536248  Biso 1.000000     H
    H   1.0     0.004556     0.869093     0.699112  Biso 1.000000     H
    H   1.0     0.504543     0.869094     0.699112  Biso 1.000000     H
    H   1.0     0.113539     0.854450     0.690261  Biso 1.000000     H
    H   1.0     0.613526     0.854451     0.690261  Biso 1.000000     H
    H   1.0     0.087299     0.951304     0.463477  Biso 1.000000     H
    H   1.0     0.587287     0.951304     0.463477  Biso 1.000000     H
    H   1.0     0.384500     0.744962     0.204652  Biso 1.000000     H
    H   1.0     0.884488     0.744961     0.204652  Biso 1.000000     H
    H   1.0     0.354829     0.711086     0.092236  Biso 1.000000     H
    H   1.0     0.854817     0.711085     0.092237  Biso 1.000000     H
    H   1.0     0.403959     0.590346     0.235560  Biso 1.000000     H
    H   1.0     0.903946     0.590345     0.235561  Biso 1.000000     H
    H   1.0     0.432944     0.001770     0.193990  Biso 1.000000     H
    H   1.0     0.932932     0.001770     0.193990  Biso 1.000000     H
    H   1.0     0.039210     0.003221     0.175218  Biso 1.000000     H
    H   1.0     0.539198     0.003220     0.175217  Biso 1.000000     H
    H   1.0     0.433211     0.935347     0.031576  Biso 1.000000     H
    H   1.0     0.933199     0.935347     0.031576  Biso 1.000000     H
    H   1.0     0.254065     0.191182     0.576279  Biso 1.000000     H
    H   1.0     0.754052     0.191181     0.576282  Biso 1.000000     H
    H   1.0     0.270414     0.211043     0.429598  Biso 1.000000     H
    H   1.0     0.770403     0.211041     0.429601  Biso 1.000000     H
    H   1.0     0.251217     0.336912     0.463722  Biso 1.000000     H
    H   1.0     0.751205     0.336910     0.463725  Biso 1.000000     H
    H   1.0     0.495427     0.130916     0.300840  Biso 1.000000     H
    H   1.0     0.995415     0.130916     0.300840  Biso 1.000000     H
    H   1.0     0.386444     0.145559     0.309692  Biso 1.000000     H
    H   1.0     0.886431     0.145559     0.309693  Biso 1.000000     H
    H   1.0     0.412685     0.048704     0.536474  Biso 1.000000     H
    H   1.0     0.912673     0.048703     0.536475  Biso 1.000000     H
    H   1.0     0.115488     0.255036     0.795307  Biso 1.000000     H
    H   1.0     0.615476     0.255034     0.795307  Biso 1.000000     H
    H   1.0     0.145158     0.288911     0.907723  Biso 1.000000     H
    H   1.0     0.645146     0.288909     0.907724  Biso 1.000000     H
    H   1.0     0.096028     0.409651     0.764400  Biso 1.000000     H
    H   1.0     0.596016     0.409650     0.764401  Biso 1.000000     H
    H   1.0     0.067042     0.998229     0.805961  Biso 1.000000     H
    H   1.0     0.567030     0.998229     0.805961  Biso 1.000000     H
    H   1.0     0.460776     0.996779     0.824734  Biso 1.000000     H
    H   1.0     0.960764     0.996779     0.824734  Biso 1.000000     H
    H   1.0     0.066776     0.064650     0.968377  Biso 1.000000     H
    H   1.0     0.566764     0.064650     0.968377  Biso 1.000000     H
    C   1.0     0.264986     0.744595     0.518011  Biso 1.000000     C
    C   1.0     0.764974     0.744594     0.518012  Biso 1.000000     C
    C   1.0     0.356833     0.712305     0.547709  Biso 1.000000     C
    C   1.0     0.856821     0.712304     0.547710  Biso 1.000000     C
    C   1.0     0.495839     0.699721     0.602602  Biso 1.000000     C
    C   1.0     0.995828     0.699721     0.602602  Biso 1.000000     C
    C   1.0     0.056909     0.857390     0.645659  Biso 1.000000     C
    C   1.0     0.556897     0.857390     0.645659  Biso 1.000000     C
    C   1.0     0.037294     0.955164     0.521214  Biso 1.000000     C
    C   1.0     0.537282     0.955164     0.521213  Biso 1.000000     C
    C   1.0     0.359585     0.683256     0.188166  Biso 1.000000     C
    C   1.0     0.859573     0.683255     0.188167  Biso 1.000000     C
    C   1.0     0.275733     0.690002     0.232348  Biso 1.000000     C
    C   1.0     0.775721     0.690001     0.232348  Biso 1.000000     C
    C   1.0     0.131007     0.745730     0.271321  Biso 1.000000     C
    C   1.0     0.630995     0.745730     0.271321  Biso 1.000000     C
    C   1.0     0.493324     0.961478     0.166926  Biso 1.000000     C
    C   1.0     0.993312     0.961478     0.166926  Biso 1.000000     C
    C   1.0     0.479831     0.972923     0.045233  Biso 1.000000     C
    C   1.0     0.979819     0.972923     0.045233  Biso 1.000000     C
    C   1.0     0.235001     0.255401     0.481952  Biso 1.000000     C
    C   1.0     0.734989     0.255400     0.481954  Biso 1.000000     C
    C   1.0     0.143153     0.287695     0.452250  Biso 1.000000     C
    C   1.0     0.643142     0.287694     0.452251  Biso 1.000000     C
    C   1.0     0.004146     0.300284     0.397355  Biso 1.000000     C
    C   1.0     0.504134     0.300284     0.397355  Biso 1.000000     C
    C   1.0     0.443074     0.142619     0.354294  Biso 1.000000     C
    C   1.0     0.943062     0.142618     0.354294  Biso 1.000000     C
    C   1.0     0.462689     0.044843     0.478738  Biso 1.000000     C
    C   1.0     0.962677     0.044843     0.478739  Biso 1.000000     C
    C   1.0     0.140403     0.316741     0.811793  Biso 1.000000     C
    C   1.0     0.640391     0.316740     0.811793  Biso 1.000000     C
    C   1.0     0.224254     0.309998     0.767612  Biso 1.000000     C
    C   1.0     0.724242     0.309997     0.767612  Biso 1.000000     C
    C   1.0     0.368980     0.254270     0.728636  Biso 1.000000     C
    C   1.0     0.868968     0.254270     0.728637  Biso 1.000000     C
    C   1.0     0.006663     0.038520     0.833027  Biso 1.000000     C
    C   1.0     0.506650     0.038520     0.833026  Biso 1.000000     C
    C   1.0     0.020156     0.027074     0.954719  Biso 1.000000     C
    C   1.0     0.520144     0.027074     0.954719  Biso 1.000000     C
    N   1.0     0.416188     0.623046     0.537395  Biso 1.000000     N
    N   1.0     0.916176     0.623046     0.537395  Biso 1.000000     N
    N   1.0     0.496627     0.616270     0.567096  Biso 1.000000     N
    N   1.0     0.996615     0.616270     0.567096  Biso 1.000000     N
    N   1.0     0.262493     0.609458     0.333780  Biso 1.000000     N
    N   1.0     0.762481     0.609458     0.333780  Biso 1.000000     N
    N   1.0     0.179427     0.640599     0.356528  Biso 1.000000     N
    N   1.0     0.679415     0.640599     0.356529  Biso 1.000000     N
    N   1.0     0.083799     0.376954     0.462565  Biso 1.000000     N
    N   1.0     0.583787     0.376954     0.462565  Biso 1.000000     N
    N   1.0     0.003360     0.383734     0.432862  Biso 1.000000     N
    N   1.0     0.503348     0.383734     0.432862  Biso 1.000000     N
    N   1.0     0.237494     0.390545     0.666182  Biso 1.000000     N
    N   1.0     0.737482     0.390545     0.666182  Biso 1.000000     N
    N   1.0     0.320560     0.359405     0.643433  Biso 1.000000     N
    N   1.0     0.820548     0.359405     0.643433  Biso 1.000000     N
    O   1.0     0.337434     0.978884     0.729670  Biso 1.000000     O
    O   1.0     0.837423     0.978879     0.729674  Biso 1.000000     O
    O   1.0     0.236064     0.886358     0.715313  Biso 1.000000     O
    O   1.0     0.736052     0.886355     0.715316  Biso 1.000000     O
    O   1.0     0.274916     0.876923     0.903407  Biso 1.000000     O
    O   1.0     0.774903     0.876921     0.903410  Biso 1.000000     O
    O   1.0     0.190383     0.067588     0.744956  Biso 1.000000     O
    O   1.0     0.690371     0.067586     0.744957  Biso 1.000000     O
    O   1.0     0.162555     0.021110     0.270289  Biso 1.000000     O
    O   1.0     0.662542     0.021109     0.270287  Biso 1.000000     O
    O   1.0     0.263925     0.113606     0.284718  Biso 1.000000     O
    O   1.0     0.763914     0.113594     0.284737  Biso 1.000000     O
    O   1.0     0.225091     0.123099     0.096588  Biso 1.000000     O
    O   1.0     0.725083     0.123108     0.096595  Biso 1.000000     O
    O   1.0     0.309611     0.932407     0.255023  Biso 1.000000     O
    O   1.0     0.809599     0.932407     0.255023  Biso 1.000000     O
    S   1.0     0.395557     0.793930     0.598856  Biso 1.000000     S
    S   1.0     0.895545     0.793930     0.598857  Biso 1.000000     S
    S   1.0     0.088525     0.702922     0.655772  Biso 1.000000     S
    S   1.0     0.588513     0.702922     0.655772  Biso 1.000000     S
    S   1.0     0.185180     0.811258     0.154946  Biso 1.000000     S
    S   1.0     0.685168     0.811257     0.154946  Biso 1.000000     S
    S   1.0     0.024587     0.804126     0.284343  Biso 1.000000     S
    S   1.0     0.524575     0.804126     0.284343  Biso 1.000000     S
    S   1.0     0.104428     0.206073     0.401100  Biso 1.000000     S
    S   1.0     0.604416     0.206072     0.401101  Biso 1.000000     S
    S   1.0     0.411460     0.297086     0.344184  Biso 1.000000     S
    S   1.0     0.911447     0.297085     0.344185  Biso 1.000000     S
    S   1.0     0.314807     0.188739     0.845010  Biso 1.000000     S
    S   1.0     0.814795     0.188738     0.845010  Biso 1.000000     S
    S   1.0     0.475399     0.195874     0.715611  Biso 1.000000     S
    S   1.0     0.975387     0.195874     0.715612  Biso 1.000000     S
   Cl   1.0     0.259830     0.951869     0.774092  Biso 1.000000    Cl
   Cl   1.0     0.759818     0.951866     0.774094  Biso 1.000000    Cl
   Cl   1.0     0.240164     0.048125     0.225899  Biso 1.000000    Cl
   Cl   1.0     0.740153     0.048123     0.225904  Biso 1.000000    Cl
   Ag   1.0     0.379436     0.483222     0.490219  Biso 1.000000    Ag
   Ag   1.0     0.879424     0.483222     0.490219  Biso 1.000000    Ag
   Ag   1.0     0.120551     0.516781     0.509740  Biso 1.000000    Ag
   Ag   1.0     0.620539     0.516780     0.509740  Biso 1.000000    Ag
