#======================================================================

# CRYSTAL DATA

#----------------------------------------------------------------------

data_VESTA_phase_1


_pd_phase_name                         MOF
_cell_length_a                         14.13700
_cell_length_b                         19.28900
_cell_length_c                         17.97000
_cell_angle_alpha                      102.21300
_cell_angle_beta                       96.91200
_cell_angle_gamma                      105.86200
_symmetry_space_group_name_H-M         "P 1"
_symmetry_Int_Tables_number            1

loop_
_symmetry_equiv_pos_as_xyz
   "x, y, z"

loop_
   _atom_site_label
   _atom_site_occupancy
   _atom_site_fract_x
   _atom_site_fract_y
   _atom_site_fract_z
   _atom_site_adp_type
   _atom_site_B_iso_or_equiv
   _atom_site_type_symbol
    H   1.0     0.402452     0.026173     0.024535  Biso 1.000000     H
    H   1.0     0.402445     0.526163     0.024534  Biso 1.000000     H
    H   1.0     0.902164     0.026145     0.024464  Biso 1.000000     H
    H   1.0     0.902158     0.526137     0.024463  Biso 1.000000     H
    H   1.0     0.110353     0.235480     0.023761  Biso 1.000000     H
    H   1.0     0.110353     0.735470     0.023762  Biso 1.000000     H
    H   1.0     0.610509     0.235502     0.023679  Biso 1.000000     H
    H   1.0     0.610507     0.735490     0.023680  Biso 1.000000     H
    H   1.0     0.077909     0.199898     0.880713  Biso 1.000000     H
    H   1.0     0.077910     0.699889     0.880713  Biso 1.000000     H
    H   1.0     0.577721     0.199967     0.880629  Biso 1.000000     H
    H   1.0     0.577720     0.699956     0.880630  Biso 1.000000     H
    H   1.0     0.362000    -0.008492     0.881548  Biso 1.000000     H
    H   1.0     0.361995     0.491499     0.881547  Biso 1.000000     H
    H   1.0     0.862032    -0.008564     0.881465  Biso 1.000000     H
    H   1.0     0.862027     0.491428     0.881464  Biso 1.000000     H
    H   1.0     0.187246     0.357288     0.475681  Biso 1.000000     H
    H   1.0     0.187242     0.857278     0.475682  Biso 1.000000     H
    H   1.0     0.687105     0.357066     0.475648  Biso 1.000000     H
    H   1.0     0.687101     0.857056     0.475649  Biso 1.000000     H
    H   1.0     0.050936     0.129764     0.478417  Biso 1.000000     H
    H   1.0     0.050935     0.629753     0.478418  Biso 1.000000     H
    H   1.0     0.550823     0.129603     0.478604  Biso 1.000000     H
    H   1.0     0.550823     0.629593     0.478604  Biso 1.000000     H
    H   1.0     0.226939     0.394557     0.619782  Biso 1.000000     H
    H   1.0     0.226938     0.894547     0.619782  Biso 1.000000     H
    H   1.0     0.726936     0.394449     0.619745  Biso 1.000000     H
    H   1.0     0.726933     0.894439     0.619746  Biso 1.000000     H
    H   1.0     0.083322     0.166384     0.622486  Biso 1.000000     H
    H   1.0     0.083324     0.666374     0.622487  Biso 1.000000     H
    H   1.0     0.583326     0.166359     0.622688  Biso 1.000000     H
    H   1.0     0.583328     0.666348     0.622689  Biso 1.000000     H
    H   1.0     0.097790     0.473823     0.975517  Biso 1.000000     H
    H   1.0     0.097789     0.973814     0.975516  Biso 1.000000     H
    H   1.0     0.597492     0.473785     0.975442  Biso 1.000000     H
    H   1.0     0.597490     0.973777     0.975442  Biso 1.000000     H
    H   1.0     0.389432     0.264461     0.976305  Biso 1.000000     H
    H   1.0     0.389433     0.764452     0.976306  Biso 1.000000     H
    H   1.0     0.889599     0.264488     0.976218  Biso 1.000000     H
    H   1.0     0.889599     0.764478     0.976218  Biso 1.000000     H
    H   1.0     0.422225     0.299999     0.119356  Biso 1.000000     H
    H   1.0     0.422226     0.799990     0.119356  Biso 1.000000     H
    H   1.0     0.922040     0.300069     0.119266  Biso 1.000000     H
    H   1.0     0.922039     0.800060     0.119266  Biso 1.000000     H
    H   1.0     0.137919     0.508532     0.118517  Biso 1.000000     H
    H   1.0     0.137918     0.000000     0.118516  Biso 1.000000     H
    H   1.0     0.637949     0.508454     0.118430  Biso 1.000000     H
    H   1.0     0.637947     0.000000     0.118429  Biso 1.000000     H
    H   1.0     0.312839     0.142898     0.524333  Biso 1.000000     H
    H   1.0     0.312840     0.642889     0.524333  Biso 1.000000     H
    H   1.0     0.812695     0.142675     0.524293  Biso 1.000000     H
    H   1.0     0.812696     0.642665     0.524293  Biso 1.000000     H
    H   1.0     0.449124     0.370362     0.521381  Biso 1.000000     H
    H   1.0     0.449121     0.870353     0.521381  Biso 1.000000     H
    H   1.0     0.949006     0.370202     0.521566  Biso 1.000000     H
    H   1.0     0.949002     0.870193     0.521567  Biso 1.000000     H
    H   1.0     0.273008     0.105518     0.380235  Biso 1.000000     H
    H   1.0     0.273008     0.605509     0.380236  Biso 1.000000     H
    H   1.0     0.773011     0.105410     0.380192  Biso 1.000000     H
    H   1.0     0.773013     0.605400     0.380192  Biso 1.000000     H
    H   1.0     0.416618     0.333608     0.377296  Biso 1.000000     H
    H   1.0     0.416615     0.833600     0.377296  Biso 1.000000     H
    H   1.0     0.916631     0.333585     0.377497  Biso 1.000000     H
    H   1.0     0.916628     0.833576     0.377497  Biso 1.000000     H
    C   1.0     0.467172     0.093075     0.870329  Biso 1.000000     C
    C   1.0     0.467169     0.593066     0.870329  Biso 1.000000     C
    C   1.0     0.967294     0.093006     0.870335  Biso 1.000000     C
    C   1.0     0.967293     0.592997     0.870335  Biso 1.000000     C
    C   1.0     0.030462     0.154234     0.119370  Biso 1.000000     C
    C   1.0     0.030459     0.654225     0.119369  Biso 1.000000     C
    C   1.0     0.531034     0.154223     0.119384  Biso 1.000000     C
    C   1.0     0.531029     0.654213     0.119384  Biso 1.000000     C
    C   1.0     0.008566     0.132981     0.033029  Biso 1.000000     C
    C   1.0     0.008564     0.632972     0.033029  Biso 1.000000     C
    C   1.0     0.508850     0.132990     0.033036  Biso 1.000000     C
    C   1.0     0.508845     0.632980     0.033036  Biso 1.000000     C
    C   1.0     0.439689     0.063991     0.992370  Biso 1.000000     C
    C   1.0     0.439683     0.563981     0.992370  Biso 1.000000     C
    C   1.0     0.939479     0.063957     0.992325  Biso 1.000000     C
    C   1.0     0.939475     0.563949     0.992325  Biso 1.000000     C
    C   1.0     0.056887     0.181920     0.991933  Biso 1.000000     C
    C   1.0     0.056886     0.681911     0.991933  Biso 1.000000     C
    C   1.0     0.557007     0.181944     0.991888  Biso 1.000000     C
    C   1.0     0.557004     0.681934     0.991889  Biso 1.000000     C
    C   1.0     0.037484     0.161813     0.911310  Biso 1.000000     C
    C   1.0     0.037484     0.661804     0.911310  Biso 1.000000     C
    C   1.0     0.537404     0.161870     0.911264  Biso 1.000000     C
    C   1.0     0.537402     0.661860     0.911265  Biso 1.000000     C
    C   1.0     0.417956     0.044520     0.911761  Biso 1.000000     C
    C   1.0     0.417951     0.544511     0.911761  Biso 1.000000     C
    C   1.0     0.917947     0.044455     0.911717  Biso 1.000000     C
    C   1.0     0.917944     0.544447     0.911716  Biso 1.000000     C
    C   1.0     0.445443     0.072211     0.785427  Biso 1.000000     C
    C   1.0     0.445440     0.572202     0.785427  Biso 1.000000     C
    C   1.0     0.945721     0.072110     0.785436  Biso 1.000000     C
    C   1.0     0.945721     0.572102     0.785436  Biso 1.000000     C
    C   1.0     0.095821     0.219312     0.382234  Biso 1.000000     C
    C   1.0     0.095818     0.719302     0.382234  Biso 1.000000     C
    C   1.0     0.595632     0.219055     0.382322  Biso 1.000000     C
    C   1.0     0.595629     0.719046     0.382323  Biso 1.000000     C
    C   1.0     0.178619     0.304662     0.715852  Biso 1.000000     C
    C   1.0     0.178619     0.804653     0.715852  Biso 1.000000     C
    C   1.0     0.678562     0.304681     0.715943  Biso 1.000000     C
    C   1.0     0.678562     0.804672     0.715944  Biso 1.000000     C
    C   1.0     0.166259     0.315991     0.508605  Biso 1.000000     C
    C   1.0     0.166257     0.815981     0.508606  Biso 1.000000     C
    C   1.0     0.666158     0.315804     0.508619  Biso 1.000000     C
    C   1.0     0.666156     0.815794     0.508620  Biso 1.000000     C
    C   1.0     0.088102     0.187642     0.510112  Biso 1.000000     C
    C   1.0     0.088102     0.687631     0.510113  Biso 1.000000     C
    C   1.0     0.588018     0.187491     0.510255  Biso 1.000000     C
    C   1.0     0.588018     0.687480     0.510256  Biso 1.000000     C
    C   1.0     0.187692     0.336606     0.589234  Biso 1.000000     C
    C   1.0     0.187691     0.836596     0.589235  Biso 1.000000     C
    C   1.0     0.687660     0.336489     0.589246  Biso 1.000000     C
    C   1.0     0.687658     0.836479     0.589247  Biso 1.000000     C
    C   1.0     0.117050     0.241380     0.468625  Biso 1.000000     C
    C   1.0     0.117046     0.741370     0.468626  Biso 1.000000     C
    C   1.0     0.616908     0.241173     0.468703  Biso 1.000000     C
    C   1.0     0.616905     0.741163     0.468704  Biso 1.000000     C
    C   1.0     0.106926     0.208375     0.590736  Biso 1.000000     C
    C   1.0     0.106926     0.708364     0.590736  Biso 1.000000     C
    C   1.0     0.606907     0.208300     0.590879  Biso 1.000000     C
    C   1.0     0.606907     0.708290     0.590880  Biso 1.000000     C
    C   1.0     0.157554     0.282974     0.630931  Biso 1.000000     C
    C   1.0     0.157554     0.782964     0.630932  Biso 1.000000     C
    C   1.0     0.657549     0.282915     0.631014  Biso 1.000000     C
    C   1.0     0.657549     0.782905     0.631015  Biso 1.000000     C
    C   1.0     0.032656     0.406962     0.129645  Biso 1.000000     C
    C   1.0     0.032655     0.906953     0.129645  Biso 1.000000     C
    C   1.0     0.532776     0.406889     0.129652  Biso 1.000000     C
    C   1.0     0.532775     0.906880     0.129652  Biso 1.000000     C
    C   1.0     0.468906     0.345738     0.880597  Biso 1.000000     C
    C   1.0     0.468905     0.845729     0.880597  Biso 1.000000     C
    C   1.0     0.969497     0.345733     0.880610  Biso 1.000000     C
    C   1.0     0.969495     0.845724     0.880610  Biso 1.000000     C
    C   1.0     0.491092     0.366970     0.966946  Biso 1.000000     C
    C   1.0     0.491091     0.866962     0.966945  Biso 1.000000     C
    C   1.0     0.991388     0.366987     0.966950  Biso 1.000000     C
    C   1.0     0.991387     0.866978     0.966950  Biso 1.000000     C
    C   1.0     0.060474     0.436011     0.007655  Biso 1.000000     C
    C   1.0     0.060473     0.936002     0.007655  Biso 1.000000     C
    C   1.0     0.560256     0.435969     0.007609  Biso 1.000000     C
    C   1.0     0.560254     0.935961     0.007609  Biso 1.000000     C
    C   1.0     0.442935     0.318018     0.008095  Biso 1.000000     C
    C   1.0     0.442935     0.818009     0.008095  Biso 1.000000     C
    C   1.0     0.943066     0.318048     0.008046  Biso 1.000000     C
    C   1.0     0.943065     0.818038     0.008046  Biso 1.000000     C
    C   1.0     0.462541     0.338094     0.088719  Biso 1.000000     C
    C   1.0     0.462542     0.838085     0.088720  Biso 1.000000     C
    C   1.0     0.962467     0.338155     0.088669  Biso 1.000000     C
    C   1.0     0.962466     0.838146     0.088669  Biso 1.000000     C
    C   1.0     0.082004     0.455512     0.088264  Biso 1.000000     C
    C   1.0     0.082003     0.955504     0.088263  Biso 1.000000     C
    C   1.0     0.581991     0.455442     0.088218  Biso 1.000000     C
    C   1.0     0.581990     0.955434     0.088218  Biso 1.000000     C
    C   1.0     0.054229     0.427857     0.214544  Biso 1.000000     C
    C   1.0     0.054228     0.927849     0.214543  Biso 1.000000     C
    C   1.0     0.554510     0.427756     0.214554  Biso 1.000000     C
    C   1.0     0.554509     0.927748     0.214554  Biso 1.000000     C
    C   1.0     0.404319     0.280908     0.617660  Biso 1.000000     C
    C   1.0     0.404319     0.780899     0.617661  Biso 1.000000     C
    C   1.0     0.904121     0.280650     0.617746  Biso 1.000000     C
    C   1.0     0.904121     0.780641     0.617746  Biso 1.000000     C
    C   1.0     0.321384     0.195287     0.284040  Biso 1.000000     C
    C   1.0     0.321382     0.695279     0.284041  Biso 1.000000     C
    C   1.0     0.821342     0.195308     0.284127  Biso 1.000000     C
    C   1.0     0.821340     0.695299     0.284127  Biso 1.000000     C
    C   1.0     0.333786     0.184161     0.491362  Biso 1.000000     C
    C   1.0     0.333786     0.684152     0.491363  Biso 1.000000     C
    C   1.0     0.833685     0.183974     0.491371  Biso 1.000000     C
    C   1.0     0.833685     0.683964     0.491371  Biso 1.000000     C
    C   1.0     0.411927     0.312475     0.489729  Biso 1.000000     C
    C   1.0     0.411925     0.812466     0.489729  Biso 1.000000     C
    C   1.0     0.911842     0.312324     0.489869  Biso 1.000000     C
    C   1.0     0.911839     0.812315     0.489869  Biso 1.000000     C
    C   1.0     0.312285     0.163478     0.410735  Biso 1.000000     C
    C   1.0     0.312284     0.663469     0.410736  Biso 1.000000     C
    C   1.0     0.812258     0.163361     0.410742  Biso 1.000000     C
    C   1.0     0.812258     0.663351     0.410742  Biso 1.000000     C
    C   1.0     0.383040     0.258791     0.531279  Biso 1.000000     C
    C   1.0     0.383038     0.758782     0.531280  Biso 1.000000     C
    C   1.0     0.882893     0.258584     0.531354  Biso 1.000000     C
    C   1.0     0.882891     0.758574     0.531354  Biso 1.000000     C
    C   1.0     0.393039     0.291667     0.409105  Biso 1.000000     C
    C   1.0     0.393036     0.791658     0.409105  Biso 1.000000     C
    C   1.0     0.893025     0.291593     0.409246  Biso 1.000000     C
    C   1.0     0.893023     0.791584     0.409246  Biso 1.000000     C
    C   1.0     0.342396     0.217052     0.368969  Biso 1.000000     C
    C   1.0     0.342394     0.717043     0.368969  Biso 1.000000     C
    C   1.0     0.842401     0.216994     0.369047  Biso 1.000000     C
    C   1.0     0.842399     0.716985     0.369047  Biso 1.000000     C
    N   1.0     0.444048     0.119127     0.739385  Biso 1.000000     N
    N   1.0     0.444047     0.619118     0.739385  Biso 1.000000     N
    N   1.0     0.944419     0.119004     0.739364  Biso 1.000000     N
    N   1.0     0.944419     0.618996     0.739364  Biso 1.000000     N
    N   1.0     0.113979     0.282915     0.762020  Biso 1.000000     N
    N   1.0     0.113979     0.782907     0.762021  Biso 1.000000     N
    N   1.0     0.613691     0.283138     0.762059  Biso 1.000000     N
    N   1.0     0.613691     0.783128     0.762060  Biso 1.000000     N
    N   1.0     0.253654     0.355347     0.836633  Biso 1.000000     N
    N   1.0     0.253654     0.855340     0.836634  Biso 1.000000     N
    N   1.0     0.753530     0.355355     0.836718  Biso 1.000000     N
    N   1.0     0.753529     0.855348     0.836718  Biso 1.000000     N
    N   1.0     0.162983     0.315468     0.836909  Biso 1.000000     N
    N   1.0     0.162983     0.815460     0.836910  Biso 1.000000     N
    N   1.0     0.662698     0.315695     0.836953  Biso 1.000000     N
    N   1.0     0.662698     0.815686     0.836954  Biso 1.000000     N
    N   1.0     0.420497     0.077101     0.664273  Biso 1.000000     N
    N   1.0     0.420496     0.577094     0.664273  Biso 1.000000     N
    N   1.0     0.920924     0.076953     0.664267  Biso 1.000000     N
    N   1.0     0.920924     0.576946     0.664267  Biso 1.000000     N
    N   1.0     0.407785     0.007547     0.664196  Biso 1.000000     N
    N   1.0     0.407783     0.507539     0.664196  Biso 1.000000     N
    N   1.0     0.908161     0.007400     0.664231  Biso 1.000000     N
    N   1.0     0.908163     0.507393     0.664230  Biso 1.000000     N
    N   1.0     0.265821     0.349769     0.761551  Biso 1.000000     N
    N   1.0     0.265821     0.849761     0.761551  Biso 1.000000     N
    N   1.0     0.765873     0.349661     0.761654  Biso 1.000000     N
    N   1.0     0.765872     0.849652     0.761655  Biso 1.000000     N
    N   1.0     0.423081     0.002572     0.739247  Biso 1.000000     N
    N   1.0     0.423079     0.502564     0.739247  Biso 1.000000     N
    N   1.0     0.923365     0.002454     0.739297  Biso 1.000000     N
    N   1.0     0.923366     0.502446     0.739297  Biso 1.000000     N
    N   1.0     0.055538     0.380963     0.260616  Biso 1.000000     N
    N   1.0     0.055536     0.880955     0.260616  Biso 1.000000     N
    N   1.0     0.555902     0.380841     0.260598  Biso 1.000000     N
    N   1.0     0.555901     0.880833     0.260598  Biso 1.000000     N
    N   1.0     0.386257     0.216831     0.237925  Biso 1.000000     N
    N   1.0     0.386255     0.716823     0.237926  Biso 1.000000     N
    N   1.0     0.885984     0.217055     0.237960  Biso 1.000000     N
    N   1.0     0.885982     0.717047     0.237960  Biso 1.000000     N
    N   1.0     0.246419     0.144612     0.163265  Biso 1.000000     N
    N   1.0     0.246416     0.644606     0.163266  Biso 1.000000     N
    N   1.0     0.746308     0.144626     0.163344  Biso 1.000000     N
    N   1.0     0.746306     0.644619     0.163344  Biso 1.000000     N
    N   1.0     0.337250     0.184274     0.163031  Biso 1.000000     N
    N   1.0     0.337248     0.684267     0.163032  Biso 1.000000     N
    N   1.0     0.836980     0.184505     0.163070  Biso 1.000000     N
    N   1.0     0.836979     0.684497     0.163070  Biso 1.000000     N
    N   1.0     0.079031     0.423013     0.335713  Biso 1.000000     N
    N   1.0     0.079029     0.923005     0.335713  Biso 1.000000     N
    N   1.0     0.579458     0.422867     0.335709  Biso 1.000000     N
    N   1.0     0.579457     0.922860     0.335709  Biso 1.000000     N
    N   1.0     0.091785     0.492566     0.335750  Biso 1.000000     N
    N   1.0     0.091784     0.992558     0.335749  Biso 1.000000     N
    N   1.0     0.592177     0.492423     0.335785  Biso 1.000000     N
    N   1.0     0.592176     0.992415     0.335784  Biso 1.000000     N
    N   1.0     0.234074     0.150307     0.238329  Biso 1.000000     N
    N   1.0     0.234071     0.650299     0.238330  Biso 1.000000     N
    N   1.0     0.734140     0.150202     0.238426  Biso 1.000000     N
    N   1.0     0.734138     0.650195     0.238426  Biso 1.000000     N
    N   1.0     0.076579     0.497512     0.260684  Biso 1.000000     N
    N   1.0     0.076578     0.997504     0.260683  Biso 1.000000     N
    N   1.0     0.576879     0.497396     0.260733  Biso 1.000000     N
    N   1.0     0.576879     0.997388     0.260732  Biso 1.000000     N
    O   1.0     0.008343     0.101832     0.153745  Biso 1.000000     O
    O   1.0     0.008341     0.601823     0.153745  Biso 1.000000     O
    O   1.0     0.509182     0.101846     0.153788  Biso 1.000000     O
    O   1.0     0.509177     0.601836     0.153788  Biso 1.000000     O
    O   1.0     0.069886     0.223513     0.153640  Biso 1.000000     O
    O   1.0     0.069884     0.723504     0.153640  Biso 1.000000     O
    O   1.0     0.570479     0.223531     0.153612  Biso 1.000000     O
    O   1.0     0.570473     0.723521     0.153612  Biso 1.000000     O
    O   1.0     0.114444     0.271369     0.347278  Biso 1.000000     O
    O   1.0     0.114441     0.771359     0.347278  Biso 1.000000     O
    O   1.0     0.614330     0.271157     0.347430  Biso 1.000000     O
    O   1.0     0.614326     0.771148     0.347431  Biso 1.000000     O
    O   1.0     0.060501     0.149737     0.348502  Biso 1.000000     O
    O   1.0     0.060496     0.649727     0.348502  Biso 1.000000     O
    O   1.0     0.560245     0.149498     0.348507  Biso 1.000000     O
    O   1.0     0.560243     0.649489     0.348508  Biso 1.000000     O
    O   1.0     0.490769     0.398117     0.846196  Biso 1.000000     O
    O   1.0     0.490768     0.898108     0.846196  Biso 1.000000     O
    O   1.0     0.991613     0.398134     0.846233  Biso 1.000000     O
    O   1.0     0.991612     0.898125     0.846232  Biso 1.000000     O
    O   1.0     0.429453     0.276432     0.846366  Biso 1.000000     O
    O   1.0     0.429451     0.776423     0.846366  Biso 1.000000     O
    O   1.0     0.930080     0.276453     0.846341  Biso 1.000000     O
    O   1.0     0.930079     0.776444     0.846341  Biso 1.000000     O
    O   1.0     0.385617     0.228806     0.652552  Biso 1.000000     O
    O   1.0     0.385617     0.728797     0.652553  Biso 1.000000     O
    O   1.0     0.885513     0.228593     0.652702  Biso 1.000000     O
    O   1.0     0.885512     0.728584     0.652702  Biso 1.000000     O
    O   1.0     0.439720     0.350465     0.651476  Biso 1.000000     O
    O   1.0     0.439719     0.850456     0.651477  Biso 1.000000     O
    O   1.0     0.939431     0.350226     0.651477  Biso 1.000000     O
    O   1.0     0.939429     0.850217     0.651477  Biso 1.000000     O
   Zn   1.0     0.033491     0.271326     0.249906  Biso 1.000000    Zn
   Zn   1.0     0.033490     0.771318     0.249906  Biso 1.000000    Zn
   Zn   1.0     0.534256     0.271236     0.249908  Biso 1.000000    Zn
   Zn   1.0     0.534254     0.771228     0.249909  Biso 1.000000    Zn
   Zn   1.0     0.091718     0.101786     0.250134  Biso 1.000000    Zn
   Zn   1.0     0.091715     0.601779     0.250135  Biso 1.000000    Zn
   Zn   1.0     0.592322     0.101725     0.250354  Biso 1.000000    Zn
   Zn   1.0     0.592321     0.601717     0.250354  Biso 1.000000    Zn
   Zn   1.0     0.465697     0.228733     0.750075  Biso 1.000000    Zn
   Zn   1.0     0.465696     0.728725     0.750075  Biso 1.000000    Zn
   Zn   1.0     0.966477     0.228644     0.750074  Biso 1.000000    Zn
   Zn   1.0     0.966477     0.728636     0.750074  Biso 1.000000    Zn
   Zn   1.0     0.407647     0.398246     0.749627  Biso 1.000000    Zn
   Zn   1.0     0.407647     0.898239     0.749628  Biso 1.000000    Zn
   Zn   1.0     0.908224     0.398181     0.749847  Biso 1.000000    Zn
   Zn   1.0     0.908223     0.898173     0.749847  Biso 1.000000    Zn
