#======================================================================

# CRYSTAL DATA

#----------------------------------------------------------------------

data_VESTA_phase_1


_pd_phase_name                         MOF
_cell_length_a                         17.38600
_cell_length_b                         18.63900
_cell_length_c                         18.15500
_cell_angle_alpha                      90.32600
_cell_angle_beta                       90.04300
_cell_angle_gamma                      89.99800
_symmetry_space_group_name_H-M         "P 1"
_symmetry_Int_Tables_number            1

loop_
_symmetry_equiv_pos_as_xyz
   "x, y, z"

loop_
   _atom_site_label
   _atom_site_occupancy
   _atom_site_fract_x
   _atom_site_fract_y
   _atom_site_fract_z
   _atom_site_adp_type
   _atom_site_B_iso_or_equiv
   _atom_site_type_symbol
    H   1.0     0.313624     0.577953     0.033311  Biso 1.000000     H
    H   1.0     0.862504     0.527211     0.225793  Biso 1.000000     H
    H   1.0     0.654687     0.439662     0.133860  Biso 1.000000     H
    H   1.0     0.655556     0.342844     0.228729  Biso 1.000000     H
    H   1.0     0.862898     0.430647     0.321628  Biso 1.000000     H
    H   1.0     0.065355     0.713525     0.860479  Biso 1.000000     H
    H   1.0     0.208215     0.715306     0.862273  Biso 1.000000     H
    H   1.0     0.205858     0.637227     0.085421  Biso 1.000000     H
    H   1.0     0.069624     0.083419     0.536237  Biso 1.000000     H
    H   1.0     0.671116     0.031747     0.217261  Biso 1.000000     H
    H   1.0     0.857547     0.924296     0.326268  Biso 1.000000     H
    H   1.0     0.853819     0.826885     0.230832  Biso 1.000000     H
    H   1.0     0.666919     0.933639     0.122064  Biso 1.000000     H
    H   1.0     0.463768     0.153647     0.585854  Biso 1.000000     H
    H   1.0     0.071970     0.277952     0.410026  Biso 1.000000     H
    H   1.0     0.215080     0.275425     0.408258  Biso 1.000000     H
    H   1.0     0.456322     0.577696     0.029828  Biso 1.000000     H
    H   1.0     0.862178     0.525907     0.723192  Biso 1.000000     H
    H   1.0     0.668887     0.424295     0.826839  Biso 1.000000     H
    H   1.0     0.672199     0.326615     0.731708  Biso 1.000000     H
    H   1.0     0.865255     0.428005     0.627732  Biso 1.000000     H
    H   1.0     0.062960     0.637937     0.083612  Biso 1.000000     H
    H   1.0     0.454302     0.780163     0.917584  Biso 1.000000     H
    H   1.0     0.311213     0.778706     0.916602  Biso 1.000000     H
    H   1.0     0.212030     0.083433     0.539688  Biso 1.000000     H
    H   1.0     0.659637     0.025246     0.722767  Biso 1.000000     H
    H   1.0     0.864352     0.934047     0.628467  Biso 1.000000     H
    H   1.0     0.862022     0.836555     0.722476  Biso 1.000000     H
    H   1.0     0.658223     0.928329     0.818153  Biso 1.000000     H
    H   1.0     0.459850     0.199119     0.354178  Biso 1.000000     H
    H   1.0     0.316624     0.200116     0.356193  Biso 1.000000     H
    H   1.0     0.320608     0.152819     0.588310  Biso 1.000000     H
    H   1.0     0.686471     0.421745     0.967033  Biso 1.000000     H
    H   1.0     0.137675     0.472867     0.276957  Biso 1.000000     H
    H   1.0     0.331502     0.574859     0.174608  Biso 1.000000     H
    H   1.0     0.328500     0.671540     0.270858  Biso 1.000000     H
    H   1.0     0.134828     0.569827     0.373448  Biso 1.000000     H
    H   1.0     0.936762     0.359225     0.915864  Biso 1.000000     H
    H   1.0     0.930548     0.916815     0.462533  Biso 1.000000     H
    H   1.0     0.338248     0.972705     0.275176  Biso 1.000000     H
    H   1.0     0.134801     0.065163     0.370720  Biso 1.000000     H
    H   1.0     0.137635     0.163042     0.277176  Biso 1.000000     H
    H   1.0     0.340372     0.070244     0.180476  Biso 1.000000     H
    H   1.0     0.539844     0.799468     0.643437  Biso 1.000000     H
    H   1.0     0.927603     0.721957     0.588171  Biso 1.000000     H
    H   1.0     0.784498     0.724638     0.589611  Biso 1.000000     H
    H   1.0     0.543694     0.421937     0.970292  Biso 1.000000     H
    H   1.0     0.135352     0.475293     0.777701  Biso 1.000000     H
    H   1.0     0.345792     0.560693     0.866196  Biso 1.000000     H
    H   1.0     0.343349     0.658576     0.772588  Biso 1.000000     H
    H   1.0     0.133514     0.572786     0.682919  Biso 1.000000     H
    H   1.0     0.934833     0.287675     0.140421  Biso 1.000000     H
    H   1.0     0.791904     0.286598     0.139190  Biso 1.000000     H
    H   1.0     0.793837     0.360624     0.914572  Biso 1.000000     H
    H   1.0     0.545673     0.220141     0.083792  Biso 1.000000     H
    H   1.0     0.688802     0.221741     0.085046  Biso 1.000000     H
    H   1.0     0.788162     0.917104     0.458891  Biso 1.000000     H
    H   1.0     0.331500     0.970216     0.780194  Biso 1.000000     H
    H   1.0     0.142766     0.076171     0.673285  Biso 1.000000     H
    H   1.0     0.146069     0.173077     0.769310  Biso 1.000000     H
    H   1.0     0.335043     0.067654     0.876158  Biso 1.000000     H
    H   1.0     0.536240     0.848431     0.412531  Biso 1.000000     H
    H   1.0     0.679378     0.849211     0.410232  Biso 1.000000     H
    H   1.0     0.683059     0.798859     0.641664  Biso 1.000000     H
    C   1.0     0.761231     0.322458     0.336345  Biso 1.000000     C
    C   1.0     0.344162     0.622648     0.008370  Biso 1.000000     C
    C   1.0     0.759477     0.381018     0.280541  Biso 1.000000     C
    C   1.0     0.758732     0.488835     0.174223  Biso 1.000000     C
    C   1.0     0.759456     0.545393     0.116270  Biso 1.000000     C
    C   1.0     0.817424     0.486704     0.227230  Biso 1.000000     C
    C   1.0     0.699924     0.437350     0.175195  Biso 1.000000     C
    C   1.0     0.700425     0.383575     0.227941  Biso 1.000000     C
    C   1.0     0.817693     0.433182     0.280202  Biso 1.000000     C
    C   1.0     0.096713     0.697588     0.909682  Biso 1.000000     C
    C   1.0     0.176597     0.698903     0.911145  Biso 1.000000     C
    C   1.0     0.175347     0.653799     0.035866  Biso 1.000000     C
    C   1.0     0.759090     0.817060     0.113035  Biso 1.000000     C
    C   1.0     0.101891     0.126232     0.509785  Biso 1.000000     C
    C   1.0     0.760270     0.874692     0.170814  Biso 1.000000     C
    C   1.0     0.764633     0.983935     0.277241  Biso 1.000000     C
    C   1.0     0.767233     0.042891     0.333450  Biso 1.000000     C
    C   1.0     0.710699     0.986566     0.219732  Biso 1.000000     C
    C   1.0     0.815980     0.925997     0.281473  Biso 1.000000     C
    C   1.0     0.813918     0.871826     0.228507  Biso 1.000000     C
    C   1.0     0.708390     0.932233     0.166993  Biso 1.000000     C
    C   1.0     0.430938     0.163309     0.535787  Biso 1.000000     C
    C   1.0     0.103328     0.235203     0.437582  Biso 1.000000     C
    C   1.0     0.183248     0.233649     0.436938  Biso 1.000000     C
    C   1.0     0.769183     0.314331     0.616041  Biso 1.000000     C
    C   1.0     0.424100     0.622166     0.006299  Biso 1.000000     C
    C   1.0     0.768841     0.371701     0.674110  Biso 1.000000     C
    C   1.0     0.765409     0.480952     0.780605  Biso 1.000000     C
    C   1.0     0.762766     0.540212     0.836503  Biso 1.000000     C
    C   1.0     0.820995     0.481937     0.724583  Biso 1.000000     C
    C   1.0     0.711943     0.424602     0.783348  Biso 1.000000     C
    C   1.0     0.713669     0.370345     0.730473  Biso 1.000000     C
    C   1.0     0.822725     0.427683     0.671715  Biso 1.000000     C
    C   1.0     0.095397     0.654201     0.035213  Biso 1.000000     C
    C   1.0     0.422840     0.735760     0.942069  Biso 1.000000     C
    C   1.0     0.342896     0.734703     0.941769  Biso 1.000000     C
    C   1.0     0.758987     0.818915     0.832547  Biso 1.000000     C
    C   1.0     0.181834     0.126542     0.511598  Biso 1.000000     C
    C   1.0     0.759945     0.876697     0.775793  Biso 1.000000     C
    C   1.0     0.762086     0.985319     0.670123  Biso 1.000000     C
    C   1.0     0.763171     0.043136     0.613374  Biso 1.000000     C
    C   1.0     0.703734     0.983786     0.723466  Biso 1.000000     C
    C   1.0     0.819420     0.932367     0.670068  Biso 1.000000     C
    C   1.0     0.818130     0.878180     0.722370  Biso 1.000000     C
    C   1.0     0.702847     0.929985     0.776162  Biso 1.000000     C
    C   1.0     0.428776     0.189690     0.405276  Biso 1.000000     C
    C   1.0     0.348819     0.190675     0.406769  Biso 1.000000     C
    C   1.0     0.350990     0.162752     0.536823  Biso 1.000000     C
    C   1.0     0.464202     0.679026     0.973574  Biso 1.000000     C
    C   1.0     0.969683     0.677500     0.971652  Biso 1.000000     C
    C   1.0     0.549836     0.679266     0.972316  Biso 1.000000     C
    C   1.0     0.302181     0.678344     0.975195  Biso 1.000000     C
    C   1.0     0.055309     0.676049     0.972059  Biso 1.000000     C
    C   1.0     0.217295     0.677024     0.974184  Biso 1.000000     C
    C   1.0     0.061919     0.180813     0.473074  Biso 1.000000     C
    C   1.0     0.556308     0.178585     0.469457  Biso 1.000000     C
    C   1.0     0.976299     0.180825     0.471473  Biso 1.000000     C
    C   1.0     0.223778     0.179427     0.474091  Biso 1.000000     C
    C   1.0     0.470608     0.176920     0.470013  Biso 1.000000     C
    C   1.0     0.308662     0.177522     0.472595  Biso 1.000000     C
    C   1.0     0.231380     0.683079     0.386348  Biso 1.000000     C
    C   1.0     0.655874     0.377201     0.992193  Biso 1.000000     C
    C   1.0     0.231639     0.626155     0.327855  Biso 1.000000     C
    C   1.0     0.234744     0.518050     0.220199  Biso 1.000000     C
    C   1.0     0.237278     0.459247     0.163817  Biso 1.000000     C
    C   1.0     0.179056     0.516689     0.276122  Biso 1.000000     C
    C   1.0     0.288427     0.574241     0.218081  Biso 1.000000     C
    C   1.0     0.286874     0.627926     0.271565  Biso 1.000000     C
    C   1.0     0.177468     0.570399     0.329567  Biso 1.000000     C
    C   1.0     0.904420     0.343980     0.964674  Biso 1.000000     C
    C   1.0     0.240746     0.180705     0.167178  Biso 1.000000     C
    C   1.0     0.898138     0.874000     0.488823  Biso 1.000000     C
    C   1.0     0.239268     0.122466     0.223425  Biso 1.000000     C
    C   1.0     0.236435     0.013257     0.328466  Biso 1.000000     C
    C   1.0     0.235294     0.955509     0.385309  Biso 1.000000     C
    C   1.0     0.294549     0.014540     0.274879  Biso 1.000000     C
    C   1.0     0.179575     0.066656     0.328956  Biso 1.000000     C
    C   1.0     0.181160     0.121085     0.276928  Biso 1.000000     C
    C   1.0     0.295823     0.068676     0.222543  Biso 1.000000     C
    C   1.0     0.570988     0.809696     0.592547  Biso 1.000000     C
    C   1.0     0.896365     0.764830     0.560698  Biso 1.000000     C
    C   1.0     0.816453     0.766493     0.561180  Biso 1.000000     C
    C   1.0     0.236024     0.680212     0.666719  Biso 1.000000     C
    C   1.0     0.575937     0.377642     0.994138  Biso 1.000000     C
    C   1.0     0.238106     0.621513     0.722412  Biso 1.000000     C
    C   1.0     0.240581     0.512421     0.827490  Biso 1.000000     C
    C   1.0     0.241025     0.455215     0.884849  Biso 1.000000     C
    C   1.0     0.180676     0.515547     0.775796  Biso 1.000000     C
    C   1.0     0.299620     0.563683     0.825874  Biso 1.000000     C
    C   1.0     0.298236     0.618091     0.773818  Biso 1.000000     C
    C   1.0     0.179578     0.569649     0.723426  Biso 1.000000     C
    C   1.0     0.903353     0.302868     0.091039  Biso 1.000000     C
    C   1.0     0.823458     0.301949     0.089909  Biso 1.000000     C
    C   1.0     0.824476     0.344782     0.964310  Biso 1.000000     C
    C   1.0     0.577154     0.264415     0.059083  Biso 1.000000     C
    C   1.0     0.657097     0.265544     0.059537  Biso 1.000000     C
    C   1.0     0.241333     0.183041     0.886599  Biso 1.000000     C
    C   1.0     0.818196     0.873854     0.486913  Biso 1.000000     C
    C   1.0     0.240593     0.125847     0.828403  Biso 1.000000     C
    C   1.0     0.236848     0.017318     0.721267  Biso 1.000000     C
    C   1.0     0.234337     0.958436     0.664990  Biso 1.000000     C
    C   1.0     0.291313     0.014957     0.778331  Biso 1.000000     C
    C   1.0     0.184723     0.074686     0.717756  Biso 1.000000     C
    C   1.0     0.186530     0.128548     0.771054  Biso 1.000000     C
    C   1.0     0.293272     0.068909     0.831477  Biso 1.000000     C
    C   1.0     0.568999     0.838021     0.462478  Biso 1.000000     C
    C   1.0     0.648946     0.838585     0.461542  Biso 1.000000     C
    C   1.0     0.650942     0.808895     0.591167  Biso 1.000000     C
    C   1.0     0.535839     0.320904     0.027088  Biso 1.000000     C
    C   1.0     0.030218     0.321268     0.028255  Biso 1.000000     C
    C   1.0     0.450214     0.320587     0.028026  Biso 1.000000     C
    C   1.0     0.697798     0.321694     0.025748  Biso 1.000000     C
    C   1.0     0.944610     0.323039     0.028088  Biso 1.000000     C
    C   1.0     0.782673     0.322857     0.026578  Biso 1.000000     C
    C   1.0     0.937946     0.819260     0.525447  Biso 1.000000     C
    C   1.0     0.443539     0.821414     0.528336  Biso 1.000000     C
    C   1.0     0.023560     0.819117     0.527313  Biso 1.000000     C
    C   1.0     0.776080     0.820921     0.524179  Biso 1.000000     C
    C   1.0     0.529230     0.823341     0.527957  Biso 1.000000     C
    C   1.0     0.691203     0.822927     0.525589  Biso 1.000000     C
    O   1.0     0.712791     0.537109     0.062569  Biso 1.000000     O
    O   1.0     0.807202     0.330924     0.390611  Biso 1.000000     O
    O   1.0     0.806704     0.597164     0.124953  Biso 1.000000     O
    O   1.0     0.717067     0.268758     0.324898  Biso 1.000000     O
    O   1.0     0.935965     0.669069     0.033571  Biso 1.000000     O
    O   1.0     0.813216     0.034455     0.387777  Biso 1.000000     O
    O   1.0     0.707377     0.821976     0.063261  Biso 1.000000     O
    O   1.0     0.723339     0.096638     0.322406  Biso 1.000000     O
    O   1.0     0.810078     0.768083     0.118320  Biso 1.000000     O
    O   1.0     0.589503     0.180991     0.406582  Biso 1.000000     O
    O   1.0     0.713248     0.534209     0.888140  Biso 1.000000     O
    O   1.0     0.820251     0.319113     0.565791  Biso 1.000000     O
    O   1.0     0.809976     0.591880     0.827783  Biso 1.000000     O
    O   1.0     0.717959     0.265571     0.621605  Biso 1.000000     O
    O   1.0     0.936507     0.687462     0.909550  Biso 1.000000     O
    O   1.0     0.813481     0.037284     0.562503  Biso 1.000000     O
    O   1.0     0.713569     0.828050     0.887042  Biso 1.000000     O
    O   1.0     0.713927     0.093571     0.620237  Biso 1.000000     O
    O   1.0     0.803493     0.765296     0.821816  Biso 1.000000     O
    O   1.0     0.590007     0.177850     0.532003  Biso 1.000000     O
    O   1.0     0.760147     0.681126     0.972200  Biso 1.000000     O
    O   1.0     0.583347     0.618820     0.981356  Biso 1.000000     O
    O   1.0     0.583127     0.739590     0.962243  Biso 1.000000     O
    O   1.0     0.766324     0.181077     0.472070  Biso 1.000000     O
    O   1.0     0.942952     0.120657     0.482361  Biso 1.000000     O
    O   1.0     0.942877     0.240725     0.459183  Biso 1.000000     O
    O   1.0     0.286564     0.465677     0.112023  Biso 1.000000     O
    O   1.0     0.180061     0.678141     0.436411  Biso 1.000000     O
    O   1.0     0.190198     0.407453     0.172396  Biso 1.000000     O
    O   1.0     0.282877     0.731597     0.381300  Biso 1.000000     O
    O   1.0     0.063516     0.312525     0.090491  Biso 1.000000     O
    O   1.0     0.186624     0.962731     0.437441  Biso 1.000000     O
    O   1.0     0.286374     0.171826     0.112802  Biso 1.000000     O
    O   1.0     0.282923     0.903882     0.377372  Biso 1.000000     O
    O   1.0     0.196481     0.234453     0.178169  Biso 1.000000     O
    O   1.0     0.409927     0.825081     0.465833  Biso 1.000000     O
    O   1.0     0.289471     0.462726     0.937242  Biso 1.000000     O
    O   1.0     0.189985     0.671726     0.612572  Biso 1.000000     O
    O   1.0     0.193147     0.403801     0.877106  Biso 1.000000     O
    O   1.0     0.280130     0.734034     0.678071  Biso 1.000000     O
    O   1.0     0.063762     0.328209     0.966055  Biso 1.000000     O
    O   1.0     0.186467     0.965612     0.611984  Biso 1.000000     O
    O   1.0     0.292809     0.178053     0.936566  Biso 1.000000     O
    O   1.0     0.280187     0.905914     0.674756  Biso 1.000000     O
    O   1.0     0.190117     0.231829     0.881392  Biso 1.000000     O
    O   1.0     0.410229     0.815827     0.590910  Biso 1.000000     O
    O   1.0     0.239919     0.318813     0.027853  Biso 1.000000     O
    O   1.0     0.416721     0.381004     0.018893  Biso 1.000000     O
    O   1.0     0.416936     0.260207     0.037859  Biso 1.000000     O
    O   1.0     0.233569     0.818813     0.527876  Biso 1.000000     O
    O   1.0     0.057104     0.879066     0.515694  Biso 1.000000     O
    O   1.0     0.056842     0.759363     0.540542  Biso 1.000000     O
   Zn   1.0     0.826785     0.679571     0.059911  Biso 1.000000    Zn
   Zn   1.0     0.700069     0.181582     0.384241  Biso 1.000000    Zn
   Zn   1.0     0.826552     0.681511     0.884464  Biso 1.000000    Zn
   Zn   1.0     0.699532     0.180233     0.559565  Biso 1.000000    Zn
   Zn   1.0     0.693501     0.596334     0.974974  Biso 1.000000    Zn
   Zn   1.0     0.692820     0.765737     0.971938  Biso 1.000000    Zn
   Zn   1.0     0.833181     0.096305     0.474906  Biso 1.000000    Zn
   Zn   1.0     0.833386     0.265950     0.472035  Biso 1.000000    Zn
   Zn   1.0     0.173449     0.318220     0.115507  Biso 1.000000    Zn
   Zn   1.0     0.300198     0.819255     0.440291  Biso 1.000000    Zn
   Zn   1.0     0.173214     0.319696     0.940211  Biso 1.000000    Zn
   Zn   1.0     0.300018     0.818491     0.615605  Biso 1.000000    Zn
   Zn   1.0     0.306573     0.403585     0.025129  Biso 1.000000    Zn
   Zn   1.0     0.307256     0.234222     0.028050  Biso 1.000000    Zn
   Zn   1.0     0.166739     0.903621     0.524949  Biso 1.000000    Zn
   Zn   1.0     0.166403     0.734053     0.528239  Biso 1.000000    Zn
