#======================================================================

# CRYSTAL DATA

#----------------------------------------------------------------------

data_VESTA_phase_1


_pd_phase_name                         MOF
_cell_length_a                         22.63800
_cell_length_b                         12.90500
_cell_length_c                         12.89600
_cell_angle_alpha                      90.01300
_cell_angle_beta                       89.97700
_cell_angle_gamma                      89.99500
_symmetry_space_group_name_H-M         "P 1"
_symmetry_Int_Tables_number            1

loop_
_symmetry_equiv_pos_as_xyz
   "x, y, z"

loop_
   _atom_site_label
   _atom_site_occupancy
   _atom_site_fract_x
   _atom_site_fract_y
   _atom_site_fract_z
   _atom_site_adp_type
   _atom_site_B_iso_or_equiv
   _atom_site_type_symbol
    H   1.0     0.129169     0.767280     0.548482  Biso 1.000000     H
    H   1.0     0.628885     0.769911     0.548569  Biso 1.000000     H
    H   1.0     0.217873     0.659897     0.597032  Biso 1.000000     H
    H   1.0     0.717213     0.661473     0.596687  Biso 1.000000     H
    H   1.0     0.253556     0.846666     0.850884  Biso 1.000000     H
    H   1.0     0.753529     0.846936     0.851209  Biso 1.000000     H
    H   1.0     0.165759     0.963158     0.809613  Biso 1.000000     H
    H   1.0     0.665843     0.963962     0.810858  Biso 1.000000     H
    H   1.0     0.296427     0.688330     0.832147  Biso 1.000000     H
    H   1.0     0.795938     0.688064     0.831739  Biso 1.000000     H
    H   1.0     0.285719     0.613232     0.717555  Biso 1.000000     H
    H   1.0     0.785234     0.613968     0.716459  Biso 1.000000     H
    H   1.0     0.345542     0.827164     0.711752  Biso 1.000000     H
    H   1.0     0.845173     0.827764     0.712400  Biso 1.000000     H
    H   1.0     0.345184     0.732234     0.613740  Biso 1.000000     H
    H   1.0     0.845036     0.733386     0.613895  Biso 1.000000     H
    H   1.0     0.128874     0.229955     0.452016  Biso 1.000000     H
    H   1.0     0.629310     0.232362     0.452232  Biso 1.000000     H
    H   1.0     0.217447     0.338210     0.404415  Biso 1.000000     H
    H   1.0     0.718398     0.339461     0.404824  Biso 1.000000     H
    H   1.0     0.253718     0.153622     0.149254  Biso 1.000000     H
    H   1.0     0.753858     0.154987     0.149229  Biso 1.000000     H
    H   1.0     0.165917     0.036656     0.189147  Biso 1.000000     H
    H   1.0     0.665796     0.038585     0.189453  Biso 1.000000     H
    H   1.0     0.296036     0.312573     0.169151  Biso 1.000000     H
    H   1.0     0.796660     0.313093     0.169201  Biso 1.000000     H
    H   1.0     0.285259     0.386252     0.284595  Biso 1.000000     H
    H   1.0     0.786016     0.387270     0.284460  Biso 1.000000     H
    H   1.0     0.345485     0.172710     0.288416  Biso 1.000000     H
    H   1.0     0.845797     0.173294     0.288582  Biso 1.000000     H
    H   1.0     0.345422     0.267316     0.386693  Biso 1.000000     H
    H   1.0     0.845776     0.267821     0.386961  Biso 1.000000     H
    H   1.0     0.379093     0.452294     0.768761  Biso 1.000000     H
    H   1.0     0.879147     0.452221     0.770343  Biso 1.000000     H
    H   1.0     0.467735     0.403759     0.660985  Biso 1.000000     H
    H   1.0     0.967600     0.404365     0.661862  Biso 1.000000     H
    H   1.0     0.503227     0.149420     0.846906  Biso 1.000000     H
    H   1.0     0.000000     0.149574     0.846797  Biso 1.000000     H
    H   1.0     0.415447     0.190550     0.963700  Biso 1.000000     H
    H   1.0     0.916032     0.189647     0.963867  Biso 1.000000     H
    H   1.0     0.046152     0.169188     0.687844  Biso 1.000000     H
    H   1.0     0.546135     0.168565     0.688511  Biso 1.000000     H
    H   1.0     0.035407     0.284374     0.613837  Biso 1.000000     H
    H   1.0     0.535269     0.283177     0.613631  Biso 1.000000     H
    H   1.0     0.095674     0.288613     0.827463  Biso 1.000000     H
    H   1.0     0.595333     0.288951     0.827419  Biso 1.000000     H
    H   1.0     0.095579     0.386700     0.732709  Biso 1.000000     H
    H   1.0     0.594944     0.386744     0.732323  Biso 1.000000     H
    H   1.0     0.379296     0.548474     0.233079  Biso 1.000000     H
    H   1.0     0.879217     0.548077     0.232671  Biso 1.000000     H
    H   1.0     0.468188     0.596548     0.340278  Biso 1.000000     H
    H   1.0     0.968106     0.595886     0.340105  Biso 1.000000     H
    H   1.0     0.503868     0.850677     0.154081  Biso 1.000000     H
    H   1.0     0.000000     0.850975     0.155161  Biso 1.000000     H
    H   1.0     0.415835     0.809986     0.037865  Biso 1.000000     H
    H   1.0     0.915560     0.810499     0.038617  Biso 1.000000     H
    H   1.0     0.046397     0.831206     0.313423  Biso 1.000000     H
    H   1.0     0.546594     0.831763     0.312496  Biso 1.000000     H
    H   1.0     0.035887     0.715952     0.387581  Biso 1.000000     H
    H   1.0     0.536001     0.717019     0.387324  Biso 1.000000     H
    H   1.0     0.095351     0.712282     0.173149  Biso 1.000000     H
    H   1.0     0.595742     0.711831     0.173167  Biso 1.000000     H
    H   1.0     0.095358     0.613580     0.267290  Biso 1.000000     H
    H   1.0     0.595664     0.613863     0.268095  Biso 1.000000     H
    H   1.0     0.370771     0.232219     0.547378  Biso 1.000000     H
    H   1.0     0.870818     0.233264     0.548430  Biso 1.000000     H
    H   1.0     0.281688     0.339040     0.595701  Biso 1.000000     H
    H   1.0     0.781620     0.340007     0.596166  Biso 1.000000     H
    H   1.0     0.246624     0.153105     0.850315  Biso 1.000000     H
    H   1.0     0.746241     0.154524     0.850975  Biso 1.000000     H
    H   1.0     0.334562     0.036872     0.808988  Biso 1.000000     H
    H   1.0     0.834398     0.038542     0.810454  Biso 1.000000     H
    H   1.0     0.203711     0.311633     0.831413  Biso 1.000000     H
    H   1.0     0.703268     0.312811     0.831531  Biso 1.000000     H
    H   1.0     0.214297     0.386184     0.716525  Biso 1.000000     H
    H   1.0     0.713843     0.387102     0.716414  Biso 1.000000     H
    H   1.0     0.154103     0.172592     0.711674  Biso 1.000000     H
    H   1.0     0.654119     0.173142     0.711976  Biso 1.000000     H
    H   1.0     0.154480     0.267325     0.613479  Biso 1.000000     H
    H   1.0     0.654322     0.267658     0.613596  Biso 1.000000     H
    H   1.0     0.370618     0.767107     0.451804  Biso 1.000000     H
    H   1.0     0.870806     0.768174     0.452416  Biso 1.000000     H
    H   1.0     0.281806     0.660072     0.403081  Biso 1.000000     H
    H   1.0     0.782098     0.660909     0.403741  Biso 1.000000     H
    H   1.0     0.246468     0.846898     0.149218  Biso 1.000000     H
    H   1.0     0.746612     0.847599     0.149818  Biso 1.000000     H
    H   1.0     0.334417     0.962997     0.190594  Biso 1.000000     H
    H   1.0     0.834361     0.964082     0.191332  Biso 1.000000     H
    H   1.0     0.203360     0.689069     0.167763  Biso 1.000000     H
    H   1.0     0.703788     0.689046     0.168394  Biso 1.000000     H
    H   1.0     0.214215     0.613389     0.281851  Biso 1.000000     H
    H   1.0     0.714505     0.614038     0.282968  Biso 1.000000     H
    H   1.0     0.154305     0.827175     0.289110  Biso 1.000000     H
    H   1.0     0.654441     0.827748     0.288673  Biso 1.000000     H
    H   1.0     0.154880     0.731727     0.386614  Biso 1.000000     H
    H   1.0     0.654934     0.732907     0.386775  Biso 1.000000     H
    H   1.0     0.120476     0.548770     0.766685  Biso 1.000000     H
    H   1.0     0.620723     0.547858     0.767134  Biso 1.000000     H
    H   1.0     0.031368     0.597274     0.660228  Biso 1.000000     H
    H   1.0     0.531634     0.595891     0.660324  Biso 1.000000     H
    H   1.0    -0.003798     0.850988     0.847429  Biso 1.000000     H
    H   1.0     0.496638     0.850810     0.845925  Biso 1.000000     H
    H   1.0     0.084408     0.809724     0.963053  Biso 1.000000     H
    H   1.0     0.584639     0.809841     0.962099  Biso 1.000000     H
    H   1.0     0.453533     0.831470     0.687743  Biso 1.000000     H
    H   1.0     0.953083     0.832645     0.689487  Biso 1.000000     H
    H   1.0     0.464078     0.716590     0.613130  Biso 1.000000     H
    H   1.0     0.963793     0.718597     0.613716  Biso 1.000000     H
    H   1.0     0.404442     0.711714     0.827343  Biso 1.000000     H
    H   1.0     0.903907     0.711688     0.827719  Biso 1.000000     H
    H   1.0     0.404618     0.613547     0.732562  Biso 1.000000     H
    H   1.0     0.904383     0.614160     0.732206  Biso 1.000000     H
    H   1.0     0.120806     0.452589     0.231953  Biso 1.000000     H
    H   1.0     0.620599     0.452300     0.232345  Biso 1.000000     H
    H   1.0     0.031941     0.404075     0.339161  Biso 1.000000     H
    H   1.0     0.531801     0.403517     0.339578  Biso 1.000000     H
    H   1.0    -0.003113     0.149623     0.153057  Biso 1.000000     H
    H   1.0     0.496410     0.150019     0.152295  Biso 1.000000     H
    H   1.0     0.084704     0.190997     0.036529  Biso 1.000000     H
    H   1.0     0.584330     0.191434     0.036070  Biso 1.000000     H
    H   1.0     0.453545     0.168328     0.310975  Biso 1.000000     H
    H   1.0     0.953869     0.168578     0.311544  Biso 1.000000     H
    H   1.0     0.464178     0.282780     0.386166  Biso 1.000000     H
    H   1.0     0.964670     0.283136     0.386505  Biso 1.000000     H
    H   1.0     0.403953     0.288530     0.172461  Biso 1.000000     H
    H   1.0     0.904464     0.288887     0.172860  Biso 1.000000     H
    H   1.0     0.404447     0.386431     0.267539  Biso 1.000000     H
    H   1.0     0.905015     0.386799     0.267947  Biso 1.000000     H
    C   1.0     0.087574     0.939887     0.651410  Biso 1.000000     C
    C   1.0     0.587474     0.942076     0.652635  Biso 1.000000     C
    C   1.0     0.141462     0.873839     0.675414  Biso 1.000000     C
    C   1.0     0.641325     0.875596     0.676144  Biso 1.000000     C
    C   1.0     0.156336     0.788374     0.614508  Biso 1.000000     C
    C   1.0     0.656041     0.790403     0.614773  Biso 1.000000     C
    C   1.0     0.205147     0.728993     0.639752  Biso 1.000000     C
    C   1.0     0.704693     0.730487     0.639723  Biso 1.000000     C
    C   1.0     0.225004     0.835379     0.784036  Biso 1.000000     C
    C   1.0     0.724865     0.836058     0.784441  Biso 1.000000     C
    C   1.0     0.176971     0.897014     0.761126  Biso 1.000000     C
    C   1.0     0.676912     0.898038     0.761973  Biso 1.000000     C
    C   1.0     0.292439     0.691854     0.747338  Biso 1.000000     C
    C   1.0     0.792011     0.692303     0.746956  Biso 1.000000     C
    C   1.0     0.346544     0.743032     0.698180  Biso 1.000000     C
    C   1.0     0.846231     0.743704     0.698402  Biso 1.000000     C
    C   1.0     0.087473     0.058130     0.347443  Biso 1.000000     C
    C   1.0     0.587461     0.061007     0.347371  Biso 1.000000     C
    C   1.0     0.141351     0.124652     0.324110  Biso 1.000000     C
    C   1.0     0.641538     0.126936     0.324320  Biso 1.000000     C
    C   1.0     0.156081     0.209620     0.385778  Biso 1.000000     C
    C   1.0     0.656514     0.211707     0.386060  Biso 1.000000     C
    C   1.0     0.204813     0.269465     0.361092  Biso 1.000000     C
    C   1.0     0.705498     0.270930     0.361438  Biso 1.000000     C
    C   1.0     0.225010     0.164354     0.216031  Biso 1.000000     C
    C   1.0     0.725265     0.165799     0.216152  Biso 1.000000     C
    C   1.0     0.176998     0.102400     0.238253  Biso 1.000000     C
    C   1.0     0.677115     0.104251     0.238491  Biso 1.000000     C
    C   1.0     0.292142     0.308024     0.253919  Biso 1.000000     C
    C   1.0     0.792735     0.308911     0.253994  Biso 1.000000     C
    C   1.0     0.346496     0.256808     0.302196  Biso 1.000000     C
    C   1.0     0.846915     0.257374     0.302457  Biso 1.000000     C
    C   1.0     0.337385     0.349265     0.941071  Biso 1.000000     C
    C   1.0     0.837570     0.347624     0.942170  Biso 1.000000     C
    C   1.0     0.391256     0.325084     0.874858  Biso 1.000000     C
    C   1.0     0.891568     0.324502     0.875811  Biso 1.000000     C
    C   1.0     0.406187     0.386135     0.789556  Biso 1.000000     C
    C   1.0     0.906320     0.386037     0.790743  Biso 1.000000     C
    C   1.0     0.454957     0.360922     0.729981  Biso 1.000000     C
    C   1.0     0.955023     0.361232     0.730796  Biso 1.000000     C
    C   1.0     0.474700     0.216324     0.835870  Biso 1.000000     C
    C   1.0     0.975166     0.216380     0.836086  Biso 1.000000     C
    C   1.0     0.426682     0.239179     0.897666  Biso 1.000000     C
    C   1.0     0.927167     0.238693     0.898097  Biso 1.000000     C
    C   1.0     0.042279     0.253910     0.692184  Biso 1.000000     C
    C   1.0     0.542117     0.253303     0.692205  Biso 1.000000     C
    C   1.0     0.096635     0.302272     0.743291  Biso 1.000000     C
    C   1.0     0.596291     0.302371     0.743209  Biso 1.000000     C
    C   1.0     0.337479     0.652509     0.060969  Biso 1.000000     C
    C   1.0     0.837370     0.652557     0.061059  Biso 1.000000     C
    C   1.0     0.391526     0.675743     0.126936  Biso 1.000000     C
    C   1.0     0.891361     0.675826     0.127125  Biso 1.000000     C
    C   1.0     0.406465     0.614519     0.212111  Biso 1.000000     C
    C   1.0     0.906331     0.614287     0.212047  Biso 1.000000     C
    C   1.0     0.455367     0.639508     0.271405  Biso 1.000000     C
    C   1.0     0.955209     0.639116     0.271449  Biso 1.000000     C
    C   1.0     0.475232     0.783968     0.165352  Biso 1.000000     C
    C   1.0     0.974952     0.784127     0.166075  Biso 1.000000     C
    C   1.0     0.427101     0.761367     0.103863  Biso 1.000000     C
    C   1.0     0.926854     0.761656     0.104440  Biso 1.000000     C
    C   1.0     0.042475     0.746480     0.309179  Biso 1.000000     C
    C   1.0     0.542671     0.747011     0.308731  Biso 1.000000     C
    C   1.0     0.096561     0.698050     0.257214  Biso 1.000000     C
    C   1.0     0.596838     0.698258     0.257346  Biso 1.000000     C
    C   1.0     0.412591     0.059963     0.650413  Biso 1.000000     C
    C   1.0     0.912629     0.061283     0.652546  Biso 1.000000     C
    C   1.0     0.358666     0.125986     0.674541  Biso 1.000000     C
    C   1.0     0.858622     0.127328     0.675889  Biso 1.000000     C
    C   1.0     0.343632     0.211220     0.613514  Biso 1.000000     C
    C   1.0     0.843619     0.212338     0.614520  Biso 1.000000     C
    C   1.0     0.294669     0.270301     0.638666  Biso 1.000000     C
    C   1.0     0.794578     0.271381     0.639333  Biso 1.000000     C
    C   1.0     0.275125     0.164350     0.783355  Biso 1.000000     C
    C   1.0     0.774847     0.165693     0.784146  Biso 1.000000     C
    C   1.0     0.323234     0.102880     0.760437  Biso 1.000000     C
    C   1.0     0.823063     0.104346     0.761646  Biso 1.000000     C
    C   1.0     0.207553     0.307712     0.746607  Biso 1.000000     C
    C   1.0     0.707213     0.308706     0.746748  Biso 1.000000     C
    C   1.0     0.153265     0.256701     0.697948  Biso 1.000000     C
    C   1.0     0.653072     0.257208     0.698085  Biso 1.000000     C
    C   1.0     0.412521     0.939470     0.348539  Biso 1.000000     C
    C   1.0     0.912492     0.940704     0.349716  Biso 1.000000     C
    C   1.0     0.358540     0.873609     0.324785  Biso 1.000000     C
    C   1.0     0.858582     0.874732     0.325543  Biso 1.000000     C
    C   1.0     0.343530     0.788284     0.385715  Biso 1.000000     C
    C   1.0     0.843671     0.789282     0.386365  Biso 1.000000     C
    C   1.0     0.294668     0.729065     0.360362  Biso 1.000000     C
    C   1.0     0.794867     0.729944     0.361021  Biso 1.000000     C
    C   1.0     0.274995     0.835489     0.216069  Biso 1.000000     C
    C   1.0     0.775126     0.836287     0.216707  Biso 1.000000     C
    C   1.0     0.323095     0.896903     0.239027  Biso 1.000000     C
    C   1.0     0.823132     0.897918     0.239748  Biso 1.000000     C
    C   1.0     0.207446     0.692152     0.252567  Biso 1.000000     C
    C   1.0     0.707738     0.692638     0.253199  Biso 1.000000     C
    C   1.0     0.153383     0.742980     0.302238  Biso 1.000000     C
    C   1.0     0.653564     0.743624     0.302325  Biso 1.000000     C
    C   1.0     0.162596     0.652332     0.939071  Biso 1.000000     C
    C   1.0     0.662629     0.651784     0.939219  Biso 1.000000     C
    C   1.0     0.108486     0.675746     0.873352  Biso 1.000000     C
    C   1.0     0.608689     0.675327     0.873148  Biso 1.000000     C
    C   1.0     0.093365     0.614801     0.788047  Biso 1.000000     C
    C   1.0     0.593627     0.614035     0.788064  Biso 1.000000     C
    C   1.0     0.044334     0.640031     0.729161  Biso 1.000000     C
    C   1.0     0.544655     0.639046     0.728963  Biso 1.000000     C
    C   1.0     0.024772     0.784246     0.835777  Biso 1.000000     C
    C   1.0     0.525128     0.783884     0.834745  Biso 1.000000     C
    C   1.0     0.072991     0.761361     0.896927  Biso 1.000000     C
    C   1.0     0.573258     0.761162     0.896186  Biso 1.000000     C
    C   1.0     0.457462     0.746735     0.691676  Biso 1.000000     C
    C   1.0     0.957091     0.747886     0.692559  Biso 1.000000     C
    C   1.0     0.403343     0.697959     0.743187  Biso 1.000000     C
    C   1.0     0.902979     0.698483     0.743468  Biso 1.000000     C
    C   1.0     0.162654     0.349626     0.059504  Biso 1.000000     C
    C   1.0     0.662476     0.349664     0.059683  Biso 1.000000     C
    C   1.0     0.108762     0.325451     0.125628  Biso 1.000000     C
    C   1.0     0.608478     0.325557     0.125592  Biso 1.000000     C
    C   1.0     0.093738     0.386447     0.210954  Biso 1.000000     C
    C   1.0     0.593481     0.386297     0.211126  Biso 1.000000     C
    C   1.0     0.044882     0.361193     0.270279  Biso 1.000000     C
    C   1.0     0.544633     0.360918     0.270434  Biso 1.000000     C
    C   1.0     0.025341     0.216582     0.164249  Biso 1.000000     C
    C   1.0     0.524929     0.216842     0.163772  Biso 1.000000     C
    C   1.0     0.073387     0.239545     0.102598  Biso 1.000000     C
    C   1.0     0.573034     0.239826     0.102266  Biso 1.000000     C
    C   1.0     0.457419     0.253085     0.307493  Biso 1.000000     C
    C   1.0     0.957841     0.253314     0.307898  Biso 1.000000     C
    C   1.0     0.403159     0.302051     0.256668  Biso 1.000000     C
    C   1.0     0.903639     0.302420     0.257065  Biso 1.000000     C
    N   1.0     0.238458     0.752484     0.723564  Biso 1.000000     N
    N   1.0     0.738113     0.753334     0.723575  Biso 1.000000     N
    N   1.0     0.238282     0.246826     0.277194  Biso 1.000000     N
    N   1.0     0.738775     0.248102     0.277380  Biso 1.000000     N
    N   1.0     0.488207     0.277003     0.753139  Biso 1.000000     N
    N   1.0     0.988459     0.277394     0.753497  Biso 1.000000     N
    N   1.0     0.488691     0.723305     0.248086  Biso 1.000000     N
    N   1.0     0.988461     0.723093     0.248515  Biso 1.000000     N
    N   1.0     0.261460     0.246933     0.722650  Biso 1.000000     N
    N   1.0     0.761247     0.248119     0.723202  Biso 1.000000     N
    N   1.0     0.261438     0.752644     0.276489  Biso 1.000000     N
    N   1.0     0.761626     0.753411     0.277139  Biso 1.000000     N
    N   1.0     0.011126     0.723861     0.752919  Biso 1.000000     N
    N   1.0     0.511481     0.723057     0.752207  Biso 1.000000     N
    N   1.0     0.011719     0.277208     0.246983  Biso 1.000000     N
    N   1.0     0.511333     0.277189     0.246721  Biso 1.000000     N
    O   1.0     0.057047     0.906908     0.573497  Biso 1.000000     O
    O   1.0     0.557459     0.910687     0.573502  Biso 1.000000     O
    O   1.0     0.077422     0.016113     0.707979  Biso 1.000000     O
    O   1.0     0.577057     0.016873     0.710976  Biso 1.000000     O
    O   1.0     0.057402     0.089452     0.426562  Biso 1.000000     O
    O   1.0     0.557146     0.092799     0.426070  Biso 1.000000     O
    O   1.0     0.077081     0.983414     0.288990  Biso 1.000000     O
    O   1.0     0.577066     0.986077     0.289210  Biso 1.000000     O
    O   1.0     0.307038     0.427448     0.908371  Biso 1.000000     O
    O   1.0     0.807435     0.426524     0.910712  Biso 1.000000     O
    O   1.0     0.327170     0.292377     0.016979  Biso 1.000000     O
    O   1.0     0.827111     0.289124     0.016776  Biso 1.000000     O
    O   1.0     0.307248     0.573728     0.092666  Biso 1.000000     O
    O   1.0     0.807130     0.573826     0.092859  Biso 1.000000     O
    O   1.0     0.326994     0.710712     0.986191  Biso 1.000000     O
    O   1.0     0.826938     0.710576     0.986116  Biso 1.000000     O
    O   1.0     0.442963     0.092657     0.572188  Biso 1.000000     O
    O   1.0     0.942796     0.092742     0.573516  Biso 1.000000     O
    O   1.0     0.422820     0.984107     0.707390  Biso 1.000000     O
    O   1.0     0.923119     0.986496     0.710794  Biso 1.000000     O
    O   1.0     0.442892     0.907109     0.426934  Biso 1.000000     O
    O   1.0     0.942923     0.907689     0.427702  Biso 1.000000     O
    O   1.0     0.422925     0.014940     0.291161  Biso 1.000000     O
    O   1.0     0.922689     0.016768     0.292980  Biso 1.000000     O
    O   1.0     0.192739     0.573465     0.907265  Biso 1.000000     O
    O   1.0     0.692905     0.573126     0.907238  Biso 1.000000     O
    O   1.0     0.173226     0.710524     0.013825  Biso 1.000000     O
    O   1.0     0.673021     0.709523     0.014403  Biso 1.000000     O
    O   1.0     0.193016     0.427774     0.092262  Biso 1.000000     O
    O   1.0     0.692876     0.427705     0.092594  Biso 1.000000     O
    O   1.0     0.172864     0.292728     0.983564  Biso 1.000000     O
    O   1.0     0.672752     0.292774     0.983763  Biso 1.000000     O
    O   1.0     0.037585     0.568227     0.066234  Biso 1.000000     O
    O   1.0     0.537586     0.568178     0.066199  Biso 1.000000     O
    O   1.0     0.037577     0.435770     0.933799  Biso 1.000000     O
    O   1.0     0.537560     0.435738     0.933755  Biso 1.000000     O
    O   1.0     0.462421     0.435754     0.066309  Biso 1.000000     O
    O   1.0     0.962439     0.435759     0.066355  Biso 1.000000     O
    O   1.0     0.462391     0.568163     0.933896  Biso 1.000000     O
    O   1.0     0.962388     0.568169     0.933936  Biso 1.000000     O
    O   1.0     0.287584     0.933632     0.565645  Biso 1.000000     O
    O   1.0     0.787591     0.933956     0.568153  Biso 1.000000     O
    O   1.0     0.287566     0.064531     0.431887  Biso 1.000000     O
    O   1.0     0.787561     0.066361     0.435686  Biso 1.000000     O
    O   1.0     0.212637     0.066581     0.564878  Biso 1.000000     O
    O   1.0     0.712387     0.066284     0.568228  Biso 1.000000     O
    O   1.0     0.212005     0.932818     0.434030  Biso 1.000000     O
    O   1.0     0.712431     0.933868     0.435695  Biso 1.000000     O
    O   1.0     0.412264     0.594667     0.501414  Biso 1.000000     O
    O   1.0     0.912903     0.595490     0.502132  Biso 1.000000     O
    O   1.0     0.414892     0.408395     0.498592  Biso 1.000000     O
    O   1.0     0.914934     0.409116     0.497780  Biso 1.000000     O
    O   1.0     0.338474     0.497564     0.594713  Biso 1.000000     O
    O   1.0     0.839296     0.497977     0.595519  Biso 1.000000     O
    O   1.0     0.337352     0.498861     0.408237  Biso 1.000000     O
    O   1.0     0.837413     0.501697     0.408979  Biso 1.000000     O
    O   1.0     0.164673     0.497758     0.591050  Biso 1.000000     O
    O   1.0     0.665280     0.497887     0.591441  Biso 1.000000     O
    O   1.0     0.162674     0.501981     0.404620  Biso 1.000000     O
    O   1.0     0.662404     0.498286     0.404953  Biso 1.000000     O
    O   1.0     0.088578     0.405246     0.498394  Biso 1.000000     O
    O   1.0     0.586755     0.408784     0.502032  Biso 1.000000     O
    O   1.0     0.087459     0.591578     0.502097  Biso 1.000000     O
    O   1.0     0.589845     0.595172     0.501807  Biso 1.000000     O
   Cl   1.0     0.000004     0.501957     0.000000  Biso 1.000000    Cl
   Cl   1.0     0.499986     0.501932     0.000028  Biso 1.000000    Cl
   Cl   1.0     0.249956    -0.000575     0.499145  Biso 1.000000    Cl
   Cl   1.0     0.749993     0.000140     0.501910  Biso 1.000000    Cl
   Cl   1.0     0.375730     0.499865     0.500745  Biso 1.000000    Cl
   Cl   1.0     0.876126     0.501037     0.501098  Biso 1.000000    Cl
   Cl   1.0     0.125838     0.499133     0.499066  Biso 1.000000    Cl
   Cl   1.0     0.626049     0.500028     0.500033  Biso 1.000000    Cl
   Zn   1.0    -0.000077    -0.000233     0.501604  Biso 1.000000    Zn
   Zn   1.0     0.499971     0.000348     0.498462  Biso 1.000000    Zn
   Zn   1.0     0.249985     0.501670     0.000059  Biso 1.000000    Zn
   Zn   1.0     0.749940     0.501551     0.000000  Biso 1.000000    Zn
