#======================================================================

# CRYSTAL DATA

#----------------------------------------------------------------------

data_VESTA_phase_1


_pd_phase_name                         MOF
_cell_length_a                         14.00400
_cell_length_b                         15.37700
_cell_length_c                         15.34800
_cell_angle_alpha                      88.19600
_cell_angle_beta                       85.27900
_cell_angle_gamma                      85.56600
_symmetry_space_group_name_H-M         "P 1"
_symmetry_Int_Tables_number            1

loop_
_symmetry_equiv_pos_as_xyz
   "x, y, z"

loop_
   _atom_site_label
   _atom_site_occupancy
   _atom_site_fract_x
   _atom_site_fract_y
   _atom_site_fract_z
   _atom_site_adp_type
   _atom_site_B_iso_or_equiv
   _atom_site_type_symbol
    H   1.0     0.928796     0.783809     0.873864  Biso 1.000000     H
    H   1.0     0.931429     0.783145     0.035659  Biso 1.000000     H
    H   1.0     0.644772     0.909152     0.055810  Biso 1.000000     H
    H   1.0     0.638828     0.828168     0.180839  Biso 1.000000     H
    H   1.0     0.642040     0.904879     0.894170  Biso 1.000000     H
    H   1.0     0.642761     0.828837     0.342437  Biso 1.000000     H
    H   1.0     0.944913     0.862627     0.313093  Biso 1.000000     H
    H   1.0     0.941907     0.865659     0.152092  Biso 1.000000     H
    H   1.0     0.935481     0.109482     0.609617  Biso 1.000000     H
    H   1.0     0.628480     0.138748     0.608792  Biso 1.000000     H
    H   1.0     0.632731     0.299588     0.612248  Biso 1.000000     H
    H   1.0     0.941351     0.268715     0.617110  Biso 1.000000     H
    H   1.0     0.929507     0.393523     0.542767  Biso 1.000000     H
    H   1.0     0.933209     0.554749     0.541233  Biso 1.000000     H
    H   1.0     0.026085     0.973721     0.620309  Biso 1.000000     H
    H   1.0     0.060430     0.706461     0.590105  Biso 1.000000     H
    H   1.0     0.237784     0.704675     0.593127  Biso 1.000000     H
    H   1.0     0.200902     0.983537     0.631261  Biso 1.000000     H
    H   1.0     0.367507     0.712903     0.660199  Biso 1.000000     H
    H   1.0     0.346736     0.982938     0.569659  Biso 1.000000     H
    H   1.0     0.545024     0.722088     0.657283  Biso 1.000000     H
    H   1.0     0.523675     0.981927     0.579043  Biso 1.000000     H
    H   1.0     0.656521     0.577377     0.683599  Biso 1.000000     H
    H   1.0     0.652886     0.416193     0.689290  Biso 1.000000     H
    H   1.0     0.071213     0.216201     0.126161  Biso 1.000000     H
    H   1.0     0.068582     0.216872     0.964365  Biso 1.000000     H
    H   1.0     0.355236     0.090863     0.944211  Biso 1.000000     H
    H   1.0     0.361183     0.171845     0.819186  Biso 1.000000     H
    H   1.0     0.357968     0.095128     0.105850  Biso 1.000000     H
    H   1.0     0.357251     0.171179     0.657589  Biso 1.000000     H
    H   1.0     0.055099     0.137389     0.686927  Biso 1.000000     H
    H   1.0     0.058103     0.134353     0.847928  Biso 1.000000     H
    H   1.0     0.064535     0.890528     0.390407  Biso 1.000000     H
    H   1.0     0.371536     0.861262     0.391231  Biso 1.000000     H
    H   1.0     0.367284     0.700422     0.387782  Biso 1.000000     H
    H   1.0     0.058665     0.731295     0.382920  Biso 1.000000     H
    H   1.0     0.070508     0.606486     0.457258  Biso 1.000000     H
    H   1.0     0.066809     0.445260     0.458794  Biso 1.000000     H
    H   1.0     0.973930     0.026290     0.379717  Biso 1.000000     H
    H   1.0     0.939584     0.293550     0.409921  Biso 1.000000     H
    H   1.0     0.762230     0.295335     0.406899  Biso 1.000000     H
    H   1.0     0.799113     0.016473     0.368764  Biso 1.000000     H
    H   1.0     0.632510     0.287107     0.339821  Biso 1.000000     H
    H   1.0     0.653278     0.017072     0.430363  Biso 1.000000     H
    H   1.0     0.454992     0.277922     0.342736  Biso 1.000000     H
    H   1.0     0.476340     0.018084     0.420977  Biso 1.000000     H
    H   1.0     0.343498     0.422635     0.316429  Biso 1.000000     H
    H   1.0     0.347129     0.583818     0.310736  Biso 1.000000     H
    C   1.0     0.784147     0.843264     0.776609  Biso 1.000000     C
    C   1.0     0.785218     0.844153     0.874131  Biso 1.000000     C
    C   1.0     0.866932     0.810811     0.914646  Biso 1.000000     C
    C   1.0     0.868264     0.811512     0.005084  Biso 1.000000     C
    C   1.0     0.706814     0.880039     0.016550  Biso 1.000000     C
    C   1.0     0.795435     0.846082     0.435859  Biso 1.000000     C
    C   1.0     0.793907     0.846010     0.338267  Biso 1.000000     C
    C   1.0     0.705971     0.837370     0.209403  Biso 1.000000     C
    C   1.0     0.705059     0.878601     0.926137  Biso 1.000000     C
    C   1.0     0.707775     0.837082     0.299863  Biso 1.000000     C
    C   1.0     0.877989     0.855471     0.283647  Biso 1.000000     C
    C   1.0     0.876071     0.856248     0.193199  Biso 1.000000     C
    C   1.0     0.790061     0.846925     0.154055  Biso 1.000000     C
    C   1.0     0.788331     0.846307     0.057938  Biso 1.000000     C
    C   1.0     0.779778     0.016379     0.605726  Biso 1.000000     C
    C   1.0     0.781588     0.113466     0.609932  Biso 1.000000     C
    C   1.0     0.869148     0.151383     0.612039  Biso 1.000000     C
    C   1.0     0.696560     0.168050     0.611093  Biso 1.000000     C
    C   1.0     0.699410     0.258148     0.613731  Biso 1.000000     C
    C   1.0     0.872083     0.241336     0.615010  Biso 1.000000     C
    C   1.0     0.787212     0.296761     0.615582  Biso 1.000000     C
    C   1.0     0.790289     0.392577     0.615251  Biso 1.000000     C
    C   1.0     0.869555     0.433319     0.574537  Biso 1.000000     C
    C   1.0     0.871861     0.523636     0.573017  Biso 1.000000     C
    C   1.0     0.794683     0.576400     0.611453  Biso 1.000000     C
    C   1.0     0.076109     0.915968     0.615614  Biso 1.000000     C
    C   1.0     0.095382     0.766194     0.598503  Biso 1.000000     C
    C   1.0     0.194072     0.765879     0.601930  Biso 1.000000     C
    C   1.0     0.235779     0.844535     0.612821  Biso 1.000000     C
    C   1.0     0.173981     0.920609     0.620575  Biso 1.000000     C
    C   1.0     0.340721     0.847498     0.615186  Biso 1.000000     C
    C   1.0     0.398696     0.773760     0.639986  Biso 1.000000     C
    C   1.0     0.386573     0.924043     0.592270  Biso 1.000000     C
    C   1.0     0.497272     0.778173     0.639932  Biso 1.000000     C
    C   1.0     0.485404     0.923762     0.595273  Biso 1.000000     C
    C   1.0     0.795927     0.673897     0.608594  Biso 1.000000     C
    C   1.0     0.715707     0.536367     0.652478  Biso 1.000000     C
    C   1.0     0.713781     0.446075     0.654875  Biso 1.000000     C
    C   1.0     0.215870     0.156760     0.223413  Biso 1.000000     C
    C   1.0     0.214785     0.155837     0.125894  Biso 1.000000     C
    C   1.0     0.133085     0.189215     0.085378  Biso 1.000000     C
    C   1.0     0.131738     0.188489     0.994942  Biso 1.000000     C
    C   1.0     0.293187     0.119961     0.983471  Biso 1.000000     C
    C   1.0     0.204580     0.153929     0.564164  Biso 1.000000     C
    C   1.0     0.206107     0.154015     0.661755  Biso 1.000000     C
    C   1.0     0.294034     0.162659     0.790624  Biso 1.000000     C
    C   1.0     0.294956     0.121423     0.073883  Biso 1.000000     C
    C   1.0     0.292240     0.162923     0.700164  Biso 1.000000     C
    C   1.0     0.122026     0.144534     0.716372  Biso 1.000000     C
    C   1.0     0.123934     0.143781     0.806819  Biso 1.000000     C
    C   1.0     0.209948     0.153068     0.845968  Biso 1.000000     C
    C   1.0     0.211684     0.153727     0.942083  Biso 1.000000     C
    C   1.0     0.220238     0.983631     0.394299  Biso 1.000000     C
    C   1.0     0.218427     0.886546     0.390083  Biso 1.000000     C
    C   1.0     0.130867     0.848626     0.387993  Biso 1.000000     C
    C   1.0     0.303455     0.831962     0.388939  Biso 1.000000     C
    C   1.0     0.300608     0.741865     0.386286  Biso 1.000000     C
    C   1.0     0.127935     0.758673     0.385007  Biso 1.000000     C
    C   1.0     0.212804     0.703249     0.384460  Biso 1.000000     C
    C   1.0     0.209721     0.607435     0.384763  Biso 1.000000     C
    C   1.0     0.130467     0.566692     0.425500  Biso 1.000000     C
    C   1.0     0.128151     0.476375     0.427001  Biso 1.000000     C
    C   1.0     0.205340     0.423610     0.388586  Biso 1.000000     C
    C   1.0     0.923906     0.084042     0.384414  Biso 1.000000     C
    C   1.0     0.904633     0.233817     0.401525  Biso 1.000000     C
    C   1.0     0.805944     0.234133     0.398092  Biso 1.000000     C
    C   1.0     0.764236     0.155475     0.387207  Biso 1.000000     C
    C   1.0     0.826035     0.079403     0.379448  Biso 1.000000     C
    C   1.0     0.659295     0.152511     0.384832  Biso 1.000000     C
    C   1.0     0.601319     0.226251     0.360037  Biso 1.000000     C
    C   1.0     0.613441     0.075968     0.407755  Biso 1.000000     C
    C   1.0     0.502745     0.221836     0.360085  Biso 1.000000     C
    C   1.0     0.514612     0.076248     0.404744  Biso 1.000000     C
    C   1.0     0.204088     0.326114     0.391423  Biso 1.000000     C
    C   1.0     0.284305     0.463644     0.347540  Biso 1.000000     C
    C   1.0     0.286241     0.553934     0.345161  Biso 1.000000     C
    N   1.0     0.036980     0.840023     0.604585  Biso 1.000000     N
    N   1.0     0.540423     0.852051     0.617984  Biso 1.000000     N
    N   1.0     0.963035     0.159988     0.395439  Biso 1.000000     N
    N   1.0     0.459592     0.147960     0.382038  Biso 1.000000     N
    O   1.0     0.699931     0.985876     0.593094  Biso 1.000000     O
    O   1.0     0.858612     0.971252     0.614824  Biso 1.000000     O
    O   1.0     0.862631     0.819163     0.733225  Biso 1.000000     O
    O   1.0     0.704767     0.866916     0.744334  Biso 1.000000     O
    O   1.0     0.716859     0.717492     0.630229  Biso 1.000000     O
    O   1.0     0.875650     0.705774     0.584675  Biso 1.000000     O
    O   1.0     0.715649     0.837918     0.480565  Biso 1.000000     O
    O   1.0     0.875746     0.855593     0.466674  Biso 1.000000     O
    O   1.0     0.300086     0.014136     0.406927  Biso 1.000000     O
    O   1.0     0.141404     0.028759     0.385198  Biso 1.000000     O
    O   1.0     0.137382     0.180845     0.266798  Biso 1.000000     O
    O   1.0     0.295246     0.133092     0.255688  Biso 1.000000     O
    O   1.0     0.283158     0.282519     0.369796  Biso 1.000000     O
    O   1.0     0.124367     0.294237     0.415350  Biso 1.000000     O
    O   1.0     0.284368     0.162091     0.519458  Biso 1.000000     O
    O   1.0     0.124270     0.144418     0.533347  Biso 1.000000     O
   Zn   1.0     0.891031     0.837368     0.599883  Biso 1.000000    Zn
   Zn   1.0     0.688014     0.852014     0.614684  Biso 1.000000    Zn
   Zn   1.0     0.108985     0.162643     0.400139  Biso 1.000000    Zn
   Zn   1.0     0.312002     0.147997     0.385338  Biso 1.000000    Zn
