#======================================================================

# CRYSTAL DATA

#----------------------------------------------------------------------

data_VESTA_phase_1


_pd_phase_name                         MOF
_cell_length_a                         19.22700
_cell_length_b                         15.40200
_cell_length_c                         15.40200
_cell_angle_alpha                      89.99400
_cell_angle_beta                       90.03800
_cell_angle_gamma                      90.01600
_symmetry_space_group_name_H-M         "P 1"
_symmetry_Int_Tables_number            1

loop_
_symmetry_equiv_pos_as_xyz
   "x, y, z"

loop_
   _atom_site_label
   _atom_site_occupancy
   _atom_site_fract_x
   _atom_site_fract_y
   _atom_site_fract_z
   _atom_site_adp_type
   _atom_site_B_iso_or_equiv
   _atom_site_type_symbol
    H   1.0     0.358442     0.968121     0.714056  Biso 1.000000     H
    H   1.0     0.357966     0.964268     0.552839  Biso 1.000000     H
    H   1.0     0.357248     0.043949     0.271061  Biso 1.000000     H
    H   1.0     0.357395     0.046793     0.432353  Biso 1.000000     H
    H   1.0     0.358087     0.286081     0.029820  Biso 1.000000     H
    H   1.0     0.357855     0.447155     0.032967  Biso 1.000000     H
    H   1.0     0.358611     0.728759     0.959382  Biso 1.000000     H
    H   1.0     0.358354     0.567679     0.956265  Biso 1.000000     H
    H   1.0     0.143991     0.043941     0.714316  Biso 1.000000     H
    H   1.0     0.143501     0.045601     0.553027  Biso 1.000000     H
    H   1.0     0.143557     0.964730     0.271321  Biso 1.000000     H
    H   1.0     0.143733     0.962066     0.432554  Biso 1.000000     H
    H   1.0     0.142193     0.729240     0.025855  Biso 1.000000     H
    H   1.0     0.142090     0.568163     0.030021  Biso 1.000000     H
    H   1.0     0.142496     0.285616     0.958885  Biso 1.000000     H
    H   1.0     0.142529     0.446642     0.954693  Biso 1.000000     H
    H   1.0     0.435007     0.876793     0.024834  Biso 1.000000     H
    H   1.0     0.444249     0.899860     0.913220  Biso 1.000000     H
    H   1.0     0.435182     0.105018     0.090237  Biso 1.000000     H
    H   1.0     0.444811    -0.002900     0.127115  Biso 1.000000     H
    H   1.0     0.434412     0.047665     0.860877  Biso 1.000000     H
    H   1.0     0.444093     0.133136     0.936475  Biso 1.000000     H
    H   1.0     0.066508     0.123947     0.916700  Biso 1.000000     H
    H   1.0     0.056993     0.026389     0.857353  Biso 1.000000     H
    H   1.0     0.066318     0.887180     0.931040  Biso 1.000000     H
    H   1.0     0.057105     0.885284     0.044930  Biso 1.000000     H
    H   1.0     0.067098     0.000000     0.128251  Biso 1.000000     H
    H   1.0     0.057534     0.118601     0.072302  Biso 1.000000     H
    H   1.0     0.858940     0.967870     0.713870  Biso 1.000000     H
    H   1.0     0.858220     0.963830     0.552656  Biso 1.000000     H
    H   1.0     0.857205     0.043670     0.270887  Biso 1.000000     H
    H   1.0     0.857576     0.046331     0.432179  Biso 1.000000     H
    H   1.0     0.858009     0.286058     0.029349  Biso 1.000000     H
    H   1.0     0.857858     0.447145     0.032321  Biso 1.000000     H
    H   1.0     0.858454     0.728728     0.958321  Biso 1.000000     H
    H   1.0     0.858136     0.567644     0.955184  Biso 1.000000     H
    H   1.0     0.644566     0.044019     0.714535  Biso 1.000000     H
    H   1.0     0.643848     0.045541     0.553241  Biso 1.000000     H
    H   1.0     0.643401     0.964932     0.271503  Biso 1.000000     H
    H   1.0     0.643794     0.962084     0.432735  Biso 1.000000     H
    H   1.0     0.642312     0.729289     0.026206  Biso 1.000000     H
    H   1.0     0.642186     0.568206     0.030341  Biso 1.000000     H
    H   1.0     0.642279     0.285665     0.959081  Biso 1.000000     H
    H   1.0     0.642361     0.446702     0.954802  Biso 1.000000     H
    H   1.0     0.935037     0.876034     0.020873  Biso 1.000000     H
    H   1.0     0.944165     0.902452     0.909972  Biso 1.000000     H
    H   1.0     0.935228     0.102245     0.093019  Biso 1.000000     H
    H   1.0     0.944736     0.993315     0.126738  Biso 1.000000     H
    H   1.0     0.934462     0.051570     0.862075  Biso 1.000000     H
    H   1.0     0.944008     0.134868     0.940096  Biso 1.000000     H
    H   1.0     0.566537     0.121370     0.913059  Biso 1.000000     H
    H   1.0     0.556897     0.021993     0.856852  Biso 1.000000     H
    H   1.0     0.566355     0.885106     0.934996  Biso 1.000000     H
    H   1.0     0.557053     0.886935     0.048876  Biso 1.000000     H
    H   1.0     0.567163     0.023373     0.127837  Biso 1.000000     H
    H   1.0     0.557483     0.120926     0.068795  Biso 1.000000     H
    C   1.0     0.251408     0.006931     0.821677  Biso 1.000000     C
    C   1.0     0.251239     0.006136     0.724390  Biso 1.000000     C
    C   1.0     0.250714     0.004863     0.540661  Biso 1.000000     C
    C   1.0     0.250367     0.005037     0.163695  Biso 1.000000     C
    C   1.0     0.250398     0.004414     0.260997  Biso 1.000000     C
    C   1.0     0.250568     0.004484     0.444721  Biso 1.000000     C
    C   1.0     0.250476     0.178343     0.994275  Biso 1.000000     C
    C   1.0     0.250317     0.275601     0.994342  Biso 1.000000     C
    C   1.0     0.250205     0.459431     0.993712  Biso 1.000000     C
    C   1.0     0.250459     0.836503     0.992470  Biso 1.000000     C
    C   1.0     0.250427     0.739215     0.992712  Biso 1.000000     C
    C   1.0     0.250233     0.555404     0.993288  Biso 1.000000     C
    C   1.0     0.460824     0.920007     0.978396  Biso 1.000000     C
    C   1.0     0.461101     0.043033     0.076643  Biso 1.000000     C
    C   1.0     0.460576     0.066652     0.921256  Biso 1.000000     C
    C   1.0     0.040583     0.060471     0.916408  Biso 1.000000     C
    C   1.0     0.040568     0.919280     0.985824  Biso 1.000000     C
    C   1.0     0.040978     0.050393     0.073175  Biso 1.000000     C
    C   1.0     0.311557     0.984809     0.678016  Biso 1.000000     C
    C   1.0     0.311148     0.983590     0.587738  Biso 1.000000     C
    C   1.0     0.310703     0.026310     0.307266  Biso 1.000000     C
    C   1.0     0.310638     0.026926     0.397537  Biso 1.000000     C
    C   1.0     0.311006     0.322066     0.013952  Biso 1.000000     C
    C   1.0     0.310730     0.412337     0.014582  Biso 1.000000     C
    C   1.0     0.311334     0.692778     0.974336  Biso 1.000000     C
    C   1.0     0.311028     0.602497     0.973695  Biso 1.000000     C
    C   1.0     0.190649     0.026781     0.678126  Biso 1.000000     C
    C   1.0     0.190522     0.026742     0.587843  Biso 1.000000     C
    C   1.0     0.190214     0.982415     0.307358  Biso 1.000000     C
    C   1.0     0.190439     0.981863     0.397655  Biso 1.000000     C
    C   1.0     0.189409     0.693025     0.011272  Biso 1.000000     C
    C   1.0     0.189508     0.602752     0.012447  Biso 1.000000     C
    C   1.0     0.189553     0.321791     0.974492  Biso 1.000000     C
    C   1.0     0.189705     0.412065     0.973291  Biso 1.000000     C
    C   1.0     0.752065     0.006972     0.821686  Biso 1.000000     C
    C   1.0     0.751786     0.006053     0.724401  Biso 1.000000     C
    C   1.0     0.750994     0.004605     0.540672  Biso 1.000000     C
    C   1.0     0.750166     0.005066     0.163694  Biso 1.000000     C
    C   1.0     0.750285     0.004382     0.260999  Biso 1.000000     C
    C   1.0     0.750714     0.004233     0.444730  Biso 1.000000     C
    C   1.0     0.750283     0.178355     0.994223  Biso 1.000000     C
    C   1.0     0.750163     0.275616     0.994193  Biso 1.000000     C
    C   1.0     0.750128     0.459444     0.993435  Biso 1.000000     C
    C   1.0     0.750480     0.836508     0.992340  Biso 1.000000     C
    C   1.0     0.750422     0.739222     0.992434  Biso 1.000000     C
    C   1.0     0.750179     0.555417     0.992935  Biso 1.000000     C
    C   1.0     0.960813     0.920608     0.975704  Biso 1.000000     C
    C   1.0     0.961093     0.040648     0.077627  Biso 1.000000     C
    C   1.0     0.960571     0.068879     0.922995  Biso 1.000000     C
    C   1.0     0.540573     0.057941     0.914832  Biso 1.000000     C
    C   1.0     0.540571     0.918988     0.988663  Biso 1.000000     C
    C   1.0     0.540990     0.052760     0.071833  Biso 1.000000     C
    C   1.0     0.812018     0.984590     0.677916  Biso 1.000000     C
    C   1.0     0.811469     0.983255     0.587637  Biso 1.000000     C
    C   1.0     0.810685     0.026089     0.307168  Biso 1.000000     C
    C   1.0     0.810745     0.026609     0.397438  Biso 1.000000     C
    C   1.0     0.810907     0.322058     0.013608  Biso 1.000000     C
    C   1.0     0.810684     0.412332     0.014117  Biso 1.000000     C
    C   1.0     0.811231     0.692771     0.973598  Biso 1.000000     C
    C   1.0     0.810903     0.602488     0.972952  Biso 1.000000     C
    C   1.0     0.691152     0.026754     0.678252  Biso 1.000000     C
    C   1.0     0.690892     0.026615     0.587971  Biso 1.000000     C
    C   1.0     0.690135     0.982459     0.307464  Biso 1.000000     C
    C   1.0     0.690484     0.981816     0.397764  Biso 1.000000     C
    C   1.0     0.689456     0.693053     0.011306  Biso 1.000000     C
    C   1.0     0.689542     0.602781     0.012482  Biso 1.000000     C
    C   1.0     0.689373     0.321832     0.974535  Biso 1.000000     C
    C   1.0     0.689567     0.412105     0.973243  Biso 1.000000     C
    N   1.0     0.433632     0.009722     0.992267  Biso 1.000000     N
    N   1.0     0.067899     0.009800     0.991770  Biso 1.000000     N
    N   1.0     0.933640     0.009869     0.992300  Biso 1.000000     N
    N   1.0     0.567914     0.009650     0.991721  Biso 1.000000     N
    O   1.0     0.309413     0.874176     0.995794  Biso 1.000000     O
    O   1.0     0.191525     0.874049     0.988938  Biso 1.000000     O
    O   1.0     0.191499    -0.000017     0.125878  Biso 1.000000     O
    O   1.0     0.192525     0.011387     0.859342  Biso 1.000000     O
    O   1.0     0.191453     0.140557     0.996113  Biso 1.000000     O
    O   1.0     0.309176     0.010920     0.126112  Biso 1.000000     O
    O   1.0     0.310425     0.003179     0.859390  Biso 1.000000     O
    O   1.0     0.309559     0.140852     0.992255  Biso 1.000000     O
    O   1.0     0.809434     0.874175     0.995744  Biso 1.000000     O
    O   1.0     0.691548     0.874065     0.988885  Biso 1.000000     O
    O   1.0     0.691285    -0.000037     0.125913  Biso 1.000000     O
    O   1.0     0.693226     0.011473     0.859427  Biso 1.000000     O
    O   1.0     0.691255     0.140581     0.996102  Biso 1.000000     O
    O   1.0     0.808953     0.010945     0.126065  Biso 1.000000     O
    O   1.0     0.811106     0.003266     0.859339  Biso 1.000000     O
    O   1.0     0.809351     0.140841     0.992265  Biso 1.000000     O
   Zn   1.0     0.323939     0.007512     0.992780  Biso 1.000000    Zn
   Zn   1.0     0.177688     0.007404     0.992576  Biso 1.000000    Zn
   Zn   1.0     0.823980     0.007537     0.992791  Biso 1.000000    Zn
   Zn   1.0     0.677719     0.007403     0.992571  Biso 1.000000    Zn
