#======================================================================

# CRYSTAL DATA

#----------------------------------------------------------------------

data_VESTA_phase_1


_pd_phase_name                         MOF
_cell_length_a                         14.01700
_cell_length_b                         15.19900
_cell_length_c                         15.24900
_cell_angle_alpha                      85.04000
_cell_angle_beta                       87.60300
_cell_angle_gamma                      83.92800
_symmetry_space_group_name_H-M         "P 1"
_symmetry_Int_Tables_number            1

loop_
_symmetry_equiv_pos_as_xyz
   "x, y, z"

loop_
   _atom_site_label
   _atom_site_occupancy
   _atom_site_fract_x
   _atom_site_fract_y
   _atom_site_fract_z
   _atom_site_adp_type
   _atom_site_B_iso_or_equiv
   _atom_site_type_symbol
    H   1.0     0.207695     0.131351     0.981031  Biso 1.000000     H
    H   1.0     0.230151     0.093341     0.702539  Biso 1.000000     H
    H   1.0     0.354569     0.071485     0.981669  Biso 1.000000     H
    H   1.0     0.936998     0.128747     0.109002  Biso 1.000000     H
    H   1.0     0.941936     0.138082     0.270658  Biso 1.000000     H
    H   1.0     0.636476     0.097154     0.142263  Biso 1.000000     H
    H   1.0     0.033637     0.116099     0.975389  Biso 1.000000     H
    H   1.0     0.053193     0.087069     0.707637  Biso 1.000000     H
    H   1.0     0.645452     0.159042     0.556728  Biso 1.000000     H
    H   1.0     0.945332     0.066213     0.561230  Biso 1.000000     H
    H   1.0     0.632210     0.397267     0.881738  Biso 1.000000     H
    H   1.0     0.944929     0.066385     0.397105  Biso 1.000000     H
    H   1.0     0.632239     0.562340     0.883924  Biso 1.000000     H
    H   1.0     0.936749     0.797525     0.874941  Biso 1.000000     H
    H   1.0     0.635218     0.690554     0.799401  Biso 1.000000     H
    H   1.0     0.641398     0.854142     0.805269  Biso 1.000000     H
    H   1.0     0.530942     0.082631     0.978081  Biso 1.000000     H
    H   1.0     0.928001     0.386062     0.793967  Biso 1.000000     H
    H   1.0     0.358059     0.163505     0.704724  Biso 1.000000     H
    H   1.0     0.535430     0.163191     0.712059  Biso 1.000000     H
    H   1.0     0.792239     0.868681     0.018970  Biso 1.000000     H
    H   1.0     0.769776     0.906685     0.297463  Biso 1.000000     H
    H   1.0     0.645365     0.928551     0.018328  Biso 1.000000     H
    H   1.0     0.062905     0.871277     0.890974  Biso 1.000000     H
    H   1.0     0.058005     0.861923     0.729318  Biso 1.000000     H
    H   1.0     0.363429     0.902874     0.857765  Biso 1.000000     H
    H   1.0     0.966297     0.883932     0.024617  Biso 1.000000     H
    H   1.0     0.946733     0.912956     0.292370  Biso 1.000000     H
    H   1.0     0.354503     0.840986     0.443274  Biso 1.000000     H
    H   1.0     0.054624     0.933813     0.438766  Biso 1.000000     H
    H   1.0     0.367756     0.602756     0.118293  Biso 1.000000     H
    H   1.0     0.055024     0.933644     0.602891  Biso 1.000000     H
    H   1.0     0.367722     0.437685     0.116111  Biso 1.000000     H
    H   1.0     0.063195     0.202516     0.125045  Biso 1.000000     H
    H   1.0     0.364722     0.309470     0.200622  Biso 1.000000     H
    H   1.0     0.358535     0.145884     0.194750  Biso 1.000000     H
    H   1.0     0.468991     0.917409     0.021914  Biso 1.000000     H
    H   1.0     0.071947     0.613977     0.206011  Biso 1.000000     H
    H   1.0     0.641871     0.836516     0.295271  Biso 1.000000     H
    H   1.0     0.464499     0.836833     0.287932  Biso 1.000000     H
    C   1.0     0.339908     0.117742     0.843051  Biso 1.000000     C
    C   1.0     0.235097     0.113749     0.841836  Biso 1.000000     C
    C   1.0     0.177538     0.120198     0.918908  Biso 1.000000     C
    C   1.0     0.781491     0.105973     0.015779  Biso 1.000000     C
    C   1.0     0.792358     0.112914     0.669975  Biso 1.000000     C
    C   1.0     0.189476     0.101661     0.764148  Biso 1.000000     C
    C   1.0     0.390596     0.094816     0.920719  Biso 1.000000     C
    C   1.0     0.783267     0.280804     0.836932  Biso 1.000000     C
    C   1.0     0.786075     0.112123     0.113000  Biso 1.000000     C
    C   1.0     0.872615     0.123730     0.150633  Biso 1.000000     C
    C   1.0     0.875239     0.127245     0.241058  Biso 1.000000     C
    C   1.0     0.789521     0.838351     0.841794  Biso 1.000000     C
    C   1.0     0.705374     0.105376     0.169779  Biso 1.000000     C
    C   1.0     0.793582     0.114836     0.390579  Biso 1.000000     C
    C   1.0     0.780259     0.379549     0.837393  Biso 1.000000     C
    C   1.0     0.079932     0.112910     0.916431  Biso 1.000000     C
    C   1.0     0.091268     0.096192     0.766486  Biso 1.000000     C
    C   1.0     0.791324     0.116859     0.292988  Biso 1.000000     C
    C   1.0     0.712918     0.138309     0.522395  Biso 1.000000     C
    C   1.0     0.795180     0.112874     0.571552  Biso 1.000000     C
    C   1.0     0.880190     0.086747     0.525208  Biso 1.000000     C
    C   1.0     0.795159     0.935820     0.846070  Biso 1.000000     C
    C   1.0     0.696015     0.430307     0.862436  Biso 1.000000     C
    C   1.0     0.879565     0.087475     0.434135  Biso 1.000000     C
    C   1.0     0.783226     0.658083     0.837603  Biso 1.000000     C
    C   1.0     0.696353     0.521607     0.862789  Biso 1.000000     C
    C   1.0     0.868527     0.775331     0.858742  Biso 1.000000     C
    C   1.0     0.700541     0.716207     0.817990  Biso 1.000000     C
    C   1.0     0.703676     0.806914     0.820451  Biso 1.000000     C
    C   1.0     0.781086     0.560405     0.837741  Biso 1.000000     C
    C   1.0     0.489099     0.098884     0.919168  Biso 1.000000     C
    C   1.0     0.861365     0.424208     0.813795  Biso 1.000000     C
    C   1.0     0.392969     0.143578     0.766795  Biso 1.000000     C
    C   1.0     0.491634     0.144743     0.770124  Biso 1.000000     C
    C   1.0     0.660023     0.882287     0.156946  Biso 1.000000     C
    C   1.0     0.764833     0.886280     0.158165  Biso 1.000000     C
    C   1.0     0.822395     0.879832     0.081094  Biso 1.000000     C
    C   1.0     0.218371     0.894073     0.984224  Biso 1.000000     C
    C   1.0     0.207599     0.887111     0.330023  Biso 1.000000     C
    C   1.0     0.810453     0.898365     0.235854  Biso 1.000000     C
    C   1.0     0.609337     0.905217     0.079278  Biso 1.000000     C
    C   1.0     0.216695     0.719228     0.163068  Biso 1.000000     C
    C   1.0     0.213822     0.887913     0.887001  Biso 1.000000     C
    C   1.0     0.127295     0.876290     0.849354  Biso 1.000000     C
    C   1.0     0.124692     0.872770     0.758929  Biso 1.000000     C
    C   1.0     0.210418     0.161683     0.158206  Biso 1.000000     C
    C   1.0     0.294537     0.894652     0.830238  Biso 1.000000     C
    C   1.0     0.206368     0.885186     0.609420  Biso 1.000000     C
    C   1.0     0.219699     0.620482     0.162613  Biso 1.000000     C
    C   1.0     0.920001     0.887119     0.083573  Biso 1.000000     C
    C   1.0     0.908661     0.903834     0.233519  Biso 1.000000     C
    C   1.0     0.208615     0.883162     0.707012  Biso 1.000000     C
    C   1.0     0.287036     0.861715     0.477606  Biso 1.000000     C
    C   1.0     0.204775     0.887149     0.428447  Biso 1.000000     C
    C   1.0     0.119765     0.913280     0.474789  Biso 1.000000     C
    C   1.0     0.204779     0.064214     0.153931  Biso 1.000000     C
    C   1.0     0.303945     0.569721     0.137583  Biso 1.000000     C
    C   1.0     0.120387     0.912549     0.565862  Biso 1.000000     C
    C   1.0     0.216721     0.341949     0.162401  Biso 1.000000     C
    C   1.0     0.303605     0.478420     0.137234  Biso 1.000000     C
    C   1.0     0.131416     0.224706     0.141250  Biso 1.000000     C
    C   1.0     0.299400     0.283821     0.182023  Biso 1.000000     C
    C   1.0     0.296261     0.193116     0.179563  Biso 1.000000     C
    C   1.0     0.218865     0.439627     0.162266  Biso 1.000000     C
    C   1.0     0.510834     0.901151     0.080827  Biso 1.000000     C
    C   1.0     0.138587     0.575828     0.186197  Biso 1.000000     C
    C   1.0     0.606962     0.856447     0.233200  Biso 1.000000     C
    C   1.0     0.508298     0.855283     0.229870  Biso 1.000000     C
    N   1.0     0.539436     0.122795     0.845118  Biso 1.000000     N
    N   1.0     0.036993     0.101138     0.841421  Biso 1.000000     N
    N   1.0     0.706834     0.106513     0.257369  Biso 1.000000     N
    N   1.0     0.866700     0.687659     0.857288  Biso 1.000000     N
    N   1.0     0.710817     0.139596     0.434664  Biso 1.000000     N
    N   1.0     0.862906     0.512129     0.813496  Biso 1.000000     N
    N   1.0     0.460497     0.877238     0.154876  Biso 1.000000     N
    N   1.0     0.962939     0.898889     0.158585  Biso 1.000000     N
    N   1.0     0.293098     0.893504     0.742647  Biso 1.000000     N
    N   1.0     0.133247     0.312378     0.142709  Biso 1.000000     N
    N   1.0     0.289137     0.860432     0.565337  Biso 1.000000     N
    N   1.0     0.137041     0.487908     0.186492  Biso 1.000000     N
    O   1.0     0.701016     0.095823     0.984387  Biso 1.000000     O
    O   1.0     0.860468     0.111093     0.971902  Biso 1.000000     O
    O   1.0     0.712165     0.136126     0.707735  Biso 1.000000     O
    O   1.0     0.871420     0.088824     0.708031  Biso 1.000000     O
    O   1.0     0.876217     0.962186     0.859112  Biso 1.000000     O
    O   1.0     0.704111     0.247782     0.855995  Biso 1.000000     O
    O   1.0     0.863044     0.237501     0.818433  Biso 1.000000     O
    O   1.0     0.715931     0.984852     0.837055  Biso 1.000000     O
    O   1.0     0.298836     0.904225     0.015635  Biso 1.000000     O
    O   1.0     0.139379     0.888953     0.028081  Biso 1.000000     O
    O   1.0     0.287793     0.863896     0.292265  Biso 1.000000     O
    O   1.0     0.128541     0.911210     0.291965  Biso 1.000000     O
    O   1.0     0.123719     0.037850     0.140891  Biso 1.000000     O
    O   1.0     0.295852     0.752248     0.144002  Biso 1.000000     O
    O   1.0     0.136918     0.762535     0.181561  Biso 1.000000     O
    O   1.0     0.284006     0.015182     0.162953  Biso 1.000000     O
   Zn   1.0     0.890834     0.099676     0.840092  Biso 1.000000    Zn
   Zn   1.0     0.687159     0.118808     0.844995  Biso 1.000000    Zn
   Zn   1.0     0.109106     0.900359     0.159906  Biso 1.000000    Zn
   Zn   1.0     0.312788     0.881226     0.155006  Biso 1.000000    Zn
