#======================================================================

# CRYSTAL DATA

#----------------------------------------------------------------------

data_VESTA_phase_1


_pd_phase_name                         MOF
_cell_length_a                         19.20600
_cell_length_b                         15.39700
_cell_length_c                         15.39100
_cell_angle_alpha                      90.01300
_cell_angle_beta                       90.05100
_cell_angle_gamma                      90.02000
_symmetry_space_group_name_H-M         "P 1"
_symmetry_Int_Tables_number            1

loop_
_symmetry_equiv_pos_as_xyz
   "x, y, z"

loop_
   _atom_site_label
   _atom_site_occupancy
   _atom_site_fract_x
   _atom_site_fract_y
   _atom_site_fract_z
   _atom_site_adp_type
   _atom_site_B_iso_or_equiv
   _atom_site_type_symbol
    H   1.0     0.358778     0.962953     0.714052  Biso 1.000000     H
    H   1.0     0.358493     0.960277     0.552518  Biso 1.000000     H
    H   1.0     0.357521     0.046685     0.270686  Biso 1.000000     H
    H   1.0     0.358137     0.048416     0.432257  Biso 1.000000     H
    H   1.0     0.358795     0.285551     0.026923  Biso 1.000000     H
    H   1.0     0.358692     0.446561     0.031258  Biso 1.000000     H
    H   1.0     0.359329     0.728892     0.961550  Biso 1.000000     H
    H   1.0     0.359168     0.567851     0.957764  Biso 1.000000     H
    H   1.0     0.145898     0.046255     0.714341  Biso 1.000000     H
    H   1.0     0.145485     0.048095     0.552790  Biso 1.000000     H
    H   1.0     0.144733     0.962821     0.271318  Biso 1.000000     H
    H   1.0     0.145235     0.960012     0.432808  Biso 1.000000     H
    H   1.0     0.142071     0.729006     0.024956  Biso 1.000000     H
    H   1.0     0.142158     0.567958     0.029268  Biso 1.000000     H
    H   1.0     0.142197     0.285733     0.959491  Biso 1.000000     H
    H   1.0     0.142482     0.446733     0.955596  Biso 1.000000     H
    H   1.0     0.435529     0.877007     0.025015  Biso 1.000000     H
    H   1.0     0.443782     0.899837     0.913139  Biso 1.000000     H
    H   1.0     0.436043     0.105415     0.089988  Biso 1.000000     H
    H   1.0     0.444776    -0.002507     0.127246  Biso 1.000000     H
    H   1.0     0.434843     0.047252     0.860689  Biso 1.000000     H
    H   1.0     0.443810     0.133207     0.936005  Biso 1.000000     H
    H   1.0     0.066425     0.124988     0.918375  Biso 1.000000     H
    H   1.0     0.058018     0.028413     0.857058  Biso 1.000000     H
    H   1.0     0.066060     0.888057     0.928498  Biso 1.000000     H
    H   1.0     0.058213     0.884117     0.042565  Biso 1.000000     H
    H   1.0     0.067236     0.000000     0.128000  Biso 1.000000     H
    H   1.0     0.058984     0.117147     0.073890  Biso 1.000000     H
    H   1.0     0.858923     0.962951     0.713951  Biso 1.000000     H
    H   1.0     0.858547     0.960294     0.552410  Biso 1.000000     H
    H   1.0     0.857329     0.047239     0.270618  Biso 1.000000     H
    H   1.0     0.858074     0.048663     0.432197  Biso 1.000000     H
    H   1.0     0.858705     0.285515     0.026770  Biso 1.000000     H
    H   1.0     0.858682     0.446518     0.031194  Biso 1.000000     H
    H   1.0     0.859459     0.728927     0.961836  Biso 1.000000     H
    H   1.0     0.859250     0.567899     0.957926  Biso 1.000000     H
    H   1.0     0.646042     0.046246     0.714432  Biso 1.000000     H
    H   1.0     0.645535     0.048090     0.552875  Biso 1.000000     H
    H   1.0     0.644645     0.962968     0.271357  Biso 1.000000     H
    H   1.0     0.645258     0.959941     0.432849  Biso 1.000000     H
    H   1.0     0.642139     0.729102     0.024927  Biso 1.000000     H
    H   1.0     0.642169     0.568055     0.029110  Biso 1.000000     H
    H   1.0     0.642109     0.285891     0.959323  Biso 1.000000     H
    H   1.0     0.642481     0.446890     0.955491  Biso 1.000000     H
    H   1.0     0.935659     0.876311     0.021860  Biso 1.000000     H
    H   1.0     0.943413     0.901727     0.910476  Biso 1.000000     H
    H   1.0     0.936212     0.103075     0.092142  Biso 1.000000     H
    H   1.0     0.944417     0.994314     0.126929  Biso 1.000000     H
    H   1.0     0.935042     0.050152     0.861572  Biso 1.000000     H
    H   1.0     0.943470     0.134495     0.938784  Biso 1.000000     H
    H   1.0     0.566626     0.122520     0.914482  Biso 1.000000     H
    H   1.0     0.557693     0.023967     0.856540  Biso 1.000000     H
    H   1.0     0.566299     0.885971     0.932675  Biso 1.000000     H
    H   1.0     0.557982     0.885995     0.046768  Biso 1.000000     H
    H   1.0     0.567507     0.021171     0.127715  Biso 1.000000     H
    H   1.0     0.558720     0.119834     0.070241  Biso 1.000000     H
    C   1.0     0.252578     0.005393     0.821663  Biso 1.000000     C
    C   1.0     0.252351     0.004632     0.724320  Biso 1.000000     C
    C   1.0     0.251963     0.004152     0.540582  Biso 1.000000     C
    C   1.0     0.250776     0.005488     0.163508  Biso 1.000000     C
    C   1.0     0.251094     0.004813     0.260864  Biso 1.000000     C
    C   1.0     0.251714     0.004184     0.444604  Biso 1.000000     C
    C   1.0     0.250448     0.178087     0.992969  Biso 1.000000     C
    C   1.0     0.250493     0.275352     0.993176  Biso 1.000000     C
    C   1.0     0.250593     0.459269     0.993448  Biso 1.000000     C
    C   1.0     0.250668     0.836486     0.992964  Biso 1.000000     C
    C   1.0     0.250696     0.739183     0.993264  Biso 1.000000     C
    C   1.0     0.250650     0.555287     0.993495  Biso 1.000000     C
    C   1.0     0.460999     0.920064     0.978098  Biso 1.000000     C
    C   1.0     0.461548     0.043065     0.076658  Biso 1.000000     C
    C   1.0     0.460777     0.066810     0.921126  Biso 1.000000     C
    C   1.0     0.040954     0.061210     0.916611  Biso 1.000000     C
    C   1.0     0.040893     0.919109     0.984365  Biso 1.000000     C
    C   1.0     0.041574     0.049240     0.073421  Biso 1.000000     C
    C   1.0     0.312305     0.981454     0.677932  Biso 1.000000     C
    C   1.0     0.312010     0.980800     0.587576  Biso 1.000000     C
    C   1.0     0.311295     0.027825     0.307027  Biso 1.000000     C
    C   1.0     0.311497     0.027922     0.397378  Biso 1.000000     C
    C   1.0     0.311506     0.321653     0.012022  Biso 1.000000     C
    C   1.0     0.311310     0.411951     0.013247  Biso 1.000000     C
    C   1.0     0.311873     0.692836     0.975712  Biso 1.000000     C
    C   1.0     0.311622     0.602531     0.974768  Biso 1.000000     C
    C   1.0     0.192191     0.027542     0.678076  Biso 1.000000     C
    C   1.0     0.192097     0.027684     0.587735  Biso 1.000000     C
    C   1.0     0.191243     0.981409     0.307340  Biso 1.000000     C
    C   1.0     0.191642     0.980707     0.397687  Biso 1.000000     C
    C   1.0     0.189514     0.692888     0.010983  Biso 1.000000     C
    C   1.0     0.189721     0.602588     0.012178  Biso 1.000000     C
    C   1.0     0.189531     0.321745     0.974488  Biso 1.000000     C
    C   1.0     0.189824     0.412044     0.973520  Biso 1.000000     C
    C   1.0     0.752743     0.005369     0.821657  Biso 1.000000     C
    C   1.0     0.752496     0.004617     0.724312  Biso 1.000000     C
    C   1.0     0.752006     0.004156     0.540573  Biso 1.000000     C
    C   1.0     0.750568     0.005932     0.163498  Biso 1.000000     C
    C   1.0     0.750938     0.005203     0.260853  Biso 1.000000     C
    C   1.0     0.751700     0.004269     0.444592  Biso 1.000000     C
    C   1.0     0.750340     0.178141     0.992777  Biso 1.000000     C
    C   1.0     0.750402     0.275410     0.993006  Biso 1.000000     C
    C   1.0     0.750594     0.459332     0.993370  Biso 1.000000     C
    C   1.0     0.750761     0.836545     0.993114  Biso 1.000000     C
    C   1.0     0.750797     0.739248     0.993407  Biso 1.000000     C
    C   1.0     0.750693     0.555351     0.993489  Biso 1.000000     C
    C   1.0     0.960927     0.920428     0.975767  Biso 1.000000     C
    C   1.0     0.961491     0.040890     0.077449  Biso 1.000000     C
    C   1.0     0.960741     0.068549     0.922531  Biso 1.000000     C
    C   1.0     0.540946     0.058849     0.915040  Biso 1.000000     C
    C   1.0     0.540929     0.918962     0.987265  Biso 1.000000     C
    C   1.0     0.541607     0.051839     0.072136  Biso 1.000000     C
    C   1.0     0.812427     0.981447     0.677872  Biso 1.000000     C
    C   1.0     0.812081     0.980805     0.587512  Biso 1.000000     C
    C   1.0     0.811149     0.028250     0.306983  Biso 1.000000     C
    C   1.0     0.811424     0.028177     0.397334  Biso 1.000000     C
    C   1.0     0.811435     0.321660     0.011881  Biso 1.000000     C
    C   1.0     0.811285     0.411958     0.013151  Biso 1.000000     C
    C   1.0     0.811976     0.692889     0.975907  Biso 1.000000     C
    C   1.0     0.811698     0.602583     0.974892  Biso 1.000000     C
    C   1.0     0.692311     0.027531     0.678119  Biso 1.000000     C
    C   1.0     0.692165     0.027677     0.587780  Biso 1.000000     C
    C   1.0     0.691150     0.981610     0.307361  Biso 1.000000     C
    C   1.0     0.691617     0.980771     0.397707  Biso 1.000000     C
    C   1.0     0.689582     0.692969     0.010992  Biso 1.000000     C
    C   1.0     0.689762     0.602670     0.012121  Biso 1.000000     C
    C   1.0     0.689463     0.321857     0.974339  Biso 1.000000     C
    C   1.0     0.689805     0.412159     0.973405  Biso 1.000000     C
    N   1.0     0.433974     0.009842     0.992226  Biso 1.000000     N
    N   1.0     0.068245     0.009567     0.991372  Biso 1.000000     N
    N   1.0     0.933950     0.009834     0.992195  Biso 1.000000     N
    N   1.0     0.568291     0.009598     0.991371  Biso 1.000000     N
    O   1.0     0.309447     0.874167     0.000000  Biso 1.000000     O
    O   1.0     0.191876     0.873998     0.985326  Biso 1.000000     O
    O   1.0     0.192101    -0.003563     0.125747  Biso 1.000000     O
    O   1.0     0.194062     0.014980     0.859440  Biso 1.000000     O
    O   1.0     0.191529     0.140449     0.999689  Biso 1.000000     O
    O   1.0     0.309255     0.015314     0.125736  Biso 1.000000     O
    O   1.0     0.311290    -0.003431     0.859437  Biso 1.000000     O
    O   1.0     0.309305     0.140450     0.986039  Biso 1.000000     O
    O   1.0     0.809520     0.874258     0.000000  Biso 1.000000     O
    O   1.0     0.691977     0.874032     0.985310  Biso 1.000000     O
    O   1.0     0.691923    -0.003554     0.125757  Biso 1.000000     O
    O   1.0     0.694230     0.014969     0.859435  Biso 1.000000     O
    O   1.0     0.691431     0.140493     0.999621  Biso 1.000000     O
    O   1.0     0.808993     0.016114     0.125689  Biso 1.000000     O
    O   1.0     0.811451    -0.003491     0.859433  Biso 1.000000     O
    O   1.0     0.809179     0.140507     0.985710  Biso 1.000000     O
   Zn   1.0     0.324261     0.007384     0.992678  Biso 1.000000    Zn
   Zn   1.0     0.178046     0.007288     0.992474  Biso 1.000000    Zn
   Zn   1.0     0.824228     0.007445     0.992680  Biso 1.000000    Zn
   Zn   1.0     0.678059     0.007316     0.992459  Biso 1.000000    Zn
