#======================================================================

# CRYSTAL DATA

#----------------------------------------------------------------------

data_VESTA_phase_1


_pd_phase_name                         MOF
_cell_length_a                         18.23500
_cell_length_b                         18.21200
_cell_length_c                         18.22100
_cell_angle_alpha                      134.15200
_cell_angle_beta                       98.67400
_cell_angle_gamma                      98.50600
_symmetry_space_group_name_H-M         "P 1"
_symmetry_Int_Tables_number            1

loop_
_symmetry_equiv_pos_as_xyz
   "x, y, z"

loop_
   _atom_site_label
   _atom_site_occupancy
   _atom_site_fract_x
   _atom_site_fract_y
   _atom_site_fract_z
   _atom_site_adp_type
   _atom_site_B_iso_or_equiv
   _atom_site_type_symbol
    H   1.0     0.874343     0.053213     0.574623  Biso 1.000000     H
    H   1.0     0.978492     0.157735     0.574181  Biso 1.000000     H
    H   1.0     0.203737     0.191867     0.600397  Biso 1.000000     H
    H   1.0     0.113388     0.154345     0.511512  Biso 1.000000     H
    H   1.0     0.111891     0.144153     0.601451  Biso 1.000000     H
    H   1.0     0.952631     0.924469     0.764160  Biso 1.000000     H
    H   1.0     0.058033     0.925127     0.868625  Biso 1.000000     H
    H   1.0     0.088369     0.931800     0.091026  Biso 1.000000     H
    H   1.0     0.024470     0.914706    -0.007663  Biso 1.000000     H
    H   1.0     0.125890     0.999898     0.060436  Biso 1.000000     H
    H   1.0     0.976944     0.298723     0.925074  Biso 1.000000     H
    H   1.0     0.081966     0.403752     0.926041  Biso 1.000000     H
    H   1.0     0.091832     0.603781     0.900262  Biso 1.000000     H
    H   1.0     0.142559     0.601076     0.988626  Biso 1.000000     H
    H   1.0     0.042730     0.511055     0.899369  Biso 1.000000     H
    H   1.0     0.659018     0.186584     0.734649  Biso 1.000000     H
    H   1.0     0.555017     0.186869     0.629666  Biso 1.000000     H
    H   1.0     0.338423    -0.004098     0.411506  Biso 1.000000     H
    H   1.0     0.420736     0.031416     0.509880  Biso 1.000000     H
    H   1.0     0.436316     0.061058     0.437921  Biso 1.000000     H
    H   1.0     0.522944     0.449170     0.324485  Biso 1.000000     H
    H   1.0     0.417716     0.344373     0.323548  Biso 1.000000     H
    H   1.0     0.408871     0.305596     0.511083  Biso 1.000000     H
    H   1.0     0.357918     0.345463     0.460248  Biso 1.000000     H
    H   1.0     0.457588     0.354298     0.467585  Biso 1.000000     H
    H   1.0     0.841163     0.576473     0.529891  Biso 1.000000     H
    H   1.0     0.944824     0.575926     0.634905  Biso 1.000000     H
    H   1.0     0.160311     0.569330     0.658130  Biso 1.000000     H
    H   1.0     0.078287     0.586041     0.611311  Biso 1.000000     H
    H   1.0     0.062355     0.501099     0.628497  Biso 1.000000     H
    H   1.0     0.625595     0.199469     0.176642  Biso 1.000000     H
    H   1.0     0.521269     0.094132     0.176082  Biso 1.000000     H
    H   1.0     0.295962     0.897877    -0.011349  Biso 1.000000     H
    H   1.0     0.386851     0.898682     0.039904  Biso 1.000000     H
    H   1.0     0.387321     0.990326     0.031607  Biso 1.000000     H
    H   1.0     0.547374     0.314156     0.972887  Biso 1.000000     H
    H   1.0     0.441692     0.312316     0.867515  Biso 1.000000     H
    H   1.0     0.412725     0.502374     0.839932  Biso 1.000000     H
    H   1.0     0.475764     0.467110     0.887307  Biso 1.000000     H
    H   1.0     0.374306     0.436967     0.872848  Biso 1.000000     H
    H   1.0     0.125665     0.946811     0.425395  Biso 1.000000     H
    H   1.0     0.021517     0.842290     0.425840  Biso 1.000000     H
    H   1.0     0.796272     0.808157     0.399625  Biso 1.000000     H
    H   1.0     0.886621     0.845679     0.488510  Biso 1.000000     H
    H   1.0     0.888118     0.855871     0.398570  Biso 1.000000     H
    H   1.0     0.047380     0.075556     0.235861  Biso 1.000000     H
    H   1.0     0.941975     0.074899     0.131399  Biso 1.000000     H
    H   1.0     0.911638     0.068222     0.908993  Biso 1.000000     H
    H   1.0     0.975538     0.085316     0.000000  Biso 1.000000     H
    H   1.0     0.874118     0.000126     0.939586  Biso 1.000000     H
    H   1.0     0.023062     0.701299     0.074945  Biso 1.000000     H
    H   1.0     0.918041     0.596272     0.073980  Biso 1.000000     H
    H   1.0     0.908176     0.396243     0.099759  Biso 1.000000     H
    H   1.0     0.857450     0.398949     0.011395  Biso 1.000000     H
    H   1.0     0.957279     0.488969     0.100653  Biso 1.000000     H
    H   1.0     0.340991     0.813442     0.265373  Biso 1.000000     H
    H   1.0     0.444991     0.813157     0.370355  Biso 1.000000     H
    H   1.0     0.661587     0.000000     0.588514  Biso 1.000000     H
    H   1.0     0.579273     0.968608     0.490140  Biso 1.000000     H
    H   1.0     0.563693     0.938967     0.562101  Biso 1.000000     H
    H   1.0     0.477063     0.550852     0.675534  Biso 1.000000     H
    H   1.0     0.582294     0.655651     0.676476  Biso 1.000000     H
    H   1.0     0.591136     0.694427     0.488937  Biso 1.000000     H
    H   1.0     0.642091     0.654562     0.539773  Biso 1.000000     H
    H   1.0     0.542420     0.645724     0.532435  Biso 1.000000     H
    H   1.0     0.158848     0.423552     0.470129  Biso 1.000000     H
    H   1.0     0.055184     0.424099     0.365118  Biso 1.000000     H
    H   1.0     0.839698     0.430693     0.341891  Biso 1.000000     H
    H   1.0     0.921722     0.413982     0.388708  Biso 1.000000     H
    H   1.0     0.937655     0.498927     0.371524  Biso 1.000000     H
    H   1.0     0.374413     0.800553     0.823376  Biso 1.000000     H
    H   1.0     0.478742     0.905892     0.823942  Biso 1.000000     H
    H   1.0     0.704046     0.102144     0.000000  Biso 1.000000     H
    H   1.0     0.613157     0.101342     0.960118  Biso 1.000000     H
    H   1.0     0.612687     0.009696     0.968412  Biso 1.000000     H
    H   1.0     0.452635     0.685869     0.027134  Biso 1.000000     H
    H   1.0     0.558317     0.687708     0.132506  Biso 1.000000     H
    H   1.0     0.587282     0.497648     0.160089  Biso 1.000000     H
    H   1.0     0.524243     0.532912     0.112714  Biso 1.000000     H
    H   1.0     0.625701     0.563055     0.127172  Biso 1.000000     H
    C   1.0     0.920315     0.129955     0.651109  Biso 1.000000     C
    C   1.0     0.978935     0.188409     0.651303  Biso 1.000000     C
    C   1.0     0.144859     0.308376     0.681316  Biso 1.000000     C
    C   1.0     0.143369     0.193837     0.594161  Biso 1.000000     C
    C   1.0     0.951470     0.848648     0.736812  Biso 1.000000     C
    C   1.0     0.009956     0.848579     0.795247  Biso 1.000000     C
    C   1.0     0.103875     0.826149     0.936093  Biso 1.000000     C
    C   1.0     0.084713     0.923172     0.024516  Biso 1.000000     C
    C   1.0     0.977736     0.268841     0.848713  Biso 1.000000     C
    C   1.0     0.036065     0.327455     0.848790  Biso 1.000000     C
    C   1.0     0.126811     0.463451     0.818561  Biso 1.000000     C
    C   1.0     0.099636     0.549253     0.906220  Biso 1.000000     C
    C   1.0     0.610968     0.213687     0.762775  Biso 1.000000     C
    C   1.0     0.552366     0.213402     0.704076  Biso 1.000000     C
    C   1.0     0.388845     0.166600     0.564220  Biso 1.000000     C
    C   1.0     0.396527     0.058204     0.476342  Biso 1.000000     C
    C   1.0     0.522137     0.371451     0.292528  Biso 1.000000     C
    C   1.0     0.463704     0.312796     0.292320  Biso 1.000000     C
    C   1.0     0.373199     0.190869     0.336506  Biso 1.000000     C
    C   1.0     0.400750     0.304886     0.449621  Biso 1.000000     C
    C   1.0     0.889090     0.652338     0.604139  Biso 1.000000     C
    C   1.0     0.947528     0.652452     0.662827  Biso 1.000000     C
    C   1.0     0.110543     0.674891     0.778940  Biso 1.000000     C
    C   1.0     0.102410     0.577803     0.663263  Biso 1.000000     C
    C   1.0     0.579564     0.230222     0.208282  Biso 1.000000     C
    C   1.0     0.520862     0.171424     0.207668  Biso 1.000000     C
    C   1.0     0.354853     0.036657     0.163151  Biso 1.000000     C
    C   1.0     0.356327     0.951500     0.050062  Biso 1.000000     C
    C   1.0     0.548506     0.286680     0.897681  Biso 1.000000     C
    C   1.0     0.489854     0.286114     0.838761  Biso 1.000000     C
    C   1.0     0.396156     0.331755     0.720817  Biso 1.000000     C
    C   1.0     0.415701     0.440100     0.836176  Biso 1.000000     C
    C   1.0     0.079692     0.870069     0.348911  Biso 1.000000     C
    C   1.0     0.021073     0.811615     0.348717  Biso 1.000000     C
    C   1.0     0.855149     0.691648     0.318705  Biso 1.000000     C
    C   1.0     0.856639     0.806187     0.405860  Biso 1.000000     C
    C   1.0     0.048537     0.151379     0.263215  Biso 1.000000     C
    C   1.0     0.990055     0.151445     0.204772  Biso 1.000000     C
    C   1.0     0.896132     0.173873     0.063926  Biso 1.000000     C
    C   1.0     0.915296     0.076851     0.975505  Biso 1.000000     C
    C   1.0     0.022270     0.731182     0.151306  Biso 1.000000     C
    C   1.0     0.963942     0.672568     0.151230  Biso 1.000000     C
    C   1.0     0.873197     0.536573     0.181460  Biso 1.000000     C
    C   1.0     0.900372     0.450771     0.093801  Biso 1.000000     C
    C   1.0     0.389041     0.786339     0.237247  Biso 1.000000     C
    C   1.0     0.447643     0.786623     0.295945  Biso 1.000000     C
    C   1.0     0.611163     0.833423     0.435800  Biso 1.000000     C
    C   1.0     0.603482     0.941820     0.523678  Biso 1.000000     C
    C   1.0     0.477875     0.628576     0.707499  Biso 1.000000     C
    C   1.0     0.536304     0.687226     0.707698  Biso 1.000000     C
    C   1.0     0.626811     0.809153     0.663515  Biso 1.000000     C
    C   1.0     0.599258     0.695137     0.550399  Biso 1.000000     C
    C   1.0     0.110916     0.347689     0.395887  Biso 1.000000     C
    C   1.0     0.052482     0.347572     0.337192  Biso 1.000000     C
    C   1.0     0.889465     0.325131     0.221080  Biso 1.000000     C
    C   1.0     0.897599     0.422222     0.336758  Biso 1.000000     C
    C   1.0     0.420447     0.769804     0.791745  Biso 1.000000     C
    C   1.0     0.479145     0.828598     0.792351  Biso 1.000000     C
    C   1.0     0.645156     0.963365     0.836869  Biso 1.000000     C
    C   1.0     0.643681     0.048523     0.949958  Biso 1.000000     C
    C   1.0     0.451503     0.713345     0.102341  Biso 1.000000     C
    C   1.0     0.510154     0.713911     0.161260  Biso 1.000000     C
    C   1.0     0.603851     0.668267     0.279203  Biso 1.000000     C
    C   1.0     0.584306     0.559922     0.163844  Biso 1.000000     C
    C   1.0     0.856565     0.106616     0.749711  Biso 1.000000     C
    C   1.0     0.919101     0.169342     0.749844  Biso 1.000000     C
    C   1.0     0.038094     0.288509     0.750103  Biso 1.000000     C
    C   1.0     0.099799     0.350007     0.750074  Biso 1.000000     C
    C   1.0     0.643630     0.393848     0.251139  Biso 1.000000     C
    C   1.0     0.580899     0.330964     0.250661  Biso 1.000000     C
    C   1.0     0.461682     0.211441     0.249853  Biso 1.000000     C
    C   1.0     0.400056     0.149777     0.249790  Biso 1.000000     C
    C   1.0     0.143441     0.893407     0.250306  Biso 1.000000     C
    C   1.0     0.080907     0.830680     0.250174  Biso 1.000000     C
    C   1.0     0.961914     0.711514     0.249918  Biso 1.000000     C
    C   1.0     0.900209     0.650017     0.249947  Biso 1.000000     C
    C   1.0     0.356382     0.606180     0.748891  Biso 1.000000     C
    C   1.0     0.419106     0.669055     0.749351  Biso 1.000000     C
    C   1.0     0.538324     0.788580     0.750164  Biso 1.000000     C
    C   1.0     0.599951     0.850246     0.750228  Biso 1.000000     C
    C   1.0     0.827669     0.750503     0.577823  Biso 1.000000     C
    C   1.0     0.890283     0.750492     0.640440  Biso 1.000000     C
    C   1.0     0.009364     0.750529     0.759723  Biso 1.000000     C
    C   1.0     0.071008     0.750530     0.821361  Biso 1.000000     C
    C   1.0     0.672542     0.250815     0.923326  Biso 1.000000     C
    C   1.0     0.609820     0.250414     0.860402  Biso 1.000000     C
    C   1.0     0.490407     0.249556     0.740625  Biso 1.000000     C
    C   1.0     0.428685     0.249270     0.678777  Biso 1.000000     C
    C   1.0     0.172337     0.249523     0.422202  Biso 1.000000     C
    C   1.0     0.109731     0.249533     0.359577  Biso 1.000000     C
    C   1.0     0.990647     0.249495     0.240296  Biso 1.000000     C
    C   1.0     0.929002     0.249495     0.178658  Biso 1.000000     C
    C   1.0     0.327467     0.749210     0.076695  Biso 1.000000     C
    C   1.0     0.390189     0.749611     0.139619  Biso 1.000000     C
    C   1.0     0.509601     0.750467     0.259395  Biso 1.000000     C
    C   1.0     0.571323     0.750753     0.321243  Biso 1.000000     C
    N   1.0     0.195555     0.392069     0.707893  Biso 1.000000     N
    N   1.0     0.158797     0.796554     0.959617  Biso 1.000000     N
    N   1.0     0.183869     0.487208     0.791479  Biso 1.000000     N
    N   1.0     0.335959     0.198053     0.540426  Biso 1.000000     N
    N   1.0     0.316048     0.107168     0.303359  Biso 1.000000     N
    N   1.0     0.163564     0.704486     0.863223  Biso 1.000000     N
    N   1.0     0.304157     0.012577     0.196380  Biso 1.000000     N
    N   1.0     0.341174     0.300051     0.636457  Biso 1.000000     N
    N   1.0     0.804453     0.607955     0.292128  Biso 1.000000     N
    N   1.0     0.841210     0.203468     0.040403  Biso 1.000000     N
    N   1.0     0.816139     0.512816     0.208543  Biso 1.000000     N
    N   1.0     0.664049     0.801970     0.459594  Biso 1.000000     N
    N   1.0     0.683962     0.892854     0.696662  Biso 1.000000     N
    N   1.0     0.836443     0.295535     0.136797  Biso 1.000000     N
    N   1.0     0.695852     0.987445     0.803641  Biso 1.000000     N
    N   1.0     0.658833     0.699972     0.363563  Biso 1.000000     N
    O   1.0     0.799091     0.024439     0.659126  Biso 1.000000     O
    O   1.0     0.831262     0.842604     0.615556  Biso 1.000000     O
    O   1.0     0.864391     0.138874     0.840119  Biso 1.000000     O
    O   1.0     0.726379     0.215531     0.884650  Biso 1.000000     O
    O   1.0     0.635982     0.477562     0.277609  Biso 1.000000     O
    O   1.0     0.773944     0.658328     0.489877  Biso 1.000000     O
    O   1.0     0.701058     0.360067     0.224998  Biso 1.000000     O
    O   1.0     0.668895     0.286518     0.012419  Biso 1.000000     O
    O   1.0     0.200918     0.975581     0.340890  Biso 1.000000     O
    O   1.0     0.168749     0.157419     0.384460  Biso 1.000000     O
    O   1.0     0.135616     0.861146     0.159897  Biso 1.000000     O
    O   1.0     0.273627     0.784489     0.115367  Biso 1.000000     O
    O   1.0     0.364025     0.522458     0.722407  Biso 1.000000     O
    O   1.0     0.226068     0.341695     0.510141  Biso 1.000000     O
    O   1.0     0.298947     0.639951     0.775016  Biso 1.000000     O
    O   1.0     0.331114     0.713506     0.987601  Biso 1.000000     O
   Zn   1.0     0.738694     0.886542     0.607047  Biso 1.000000    Zn
   Zn   1.0     0.778619     0.131203     0.893019  Biso 1.000000    Zn
   Zn   1.0     0.721650     0.614826     0.354021  Biso 1.000000    Zn
   Zn   1.0     0.761362     0.368685     0.147166  Biso 1.000000    Zn
   Zn   1.0     0.261315     0.113481     0.392973  Biso 1.000000    Zn
   Zn   1.0     0.221390     0.868819     0.107001  Biso 1.000000    Zn
   Zn   1.0     0.278358     0.385197     0.645999  Biso 1.000000    Zn
   Zn   1.0     0.238646     0.631338     0.852853  Biso 1.000000    Zn
