#======================================================================

# CRYSTAL DATA

#----------------------------------------------------------------------

data_VESTA_phase_1


_pd_phase_name                         MOF
_cell_length_a                         14.03400
_cell_length_b                         18.16500
_cell_length_c                         18.17000
_cell_angle_alpha                      81.60300
_cell_angle_beta                       67.41100
_cell_angle_gamma                      67.40800
_symmetry_space_group_name_H-M         "P 1"
_symmetry_Int_Tables_number            1

loop_
_symmetry_equiv_pos_as_xyz
   "x, y, z"

loop_
   _atom_site_label
   _atom_site_occupancy
   _atom_site_fract_x
   _atom_site_fract_y
   _atom_site_fract_z
   _atom_site_adp_type
   _atom_site_B_iso_or_equiv
   _atom_site_type_symbol
    H   1.0     0.817106     0.130930     0.478741  Biso 1.000000     H
    H   1.0     0.817982     0.025969     0.583617  Biso 1.000000     H
    H   1.0     0.014684     0.793803     0.582276  Biso 1.000000     H
    H   1.0     0.968123     0.881344     0.637477  Biso 1.000000     H
    H   1.0     0.969402     0.888975     0.538463  Biso 1.000000     H
    H   1.0     0.029851     0.046252     0.167653  Biso 1.000000     H
    H   1.0     0.135704     0.940327     0.063740  Biso 1.000000     H
    H   1.0     0.149665     0.907793     0.849819  Biso 1.000000     H
    H   1.0     0.103682     0.972954     0.930625  Biso 1.000000     H
    H   1.0     0.124868     0.870258     0.948419  Biso 1.000000     H
    H   1.0     0.682880     0.021222     0.369136  Biso 1.000000     H
    H   1.0     0.681983     0.916392     0.474121  Biso 1.000000     H
    H   1.0     0.485311     0.917797     0.706229  Biso 1.000000     H
    H   1.0     0.531852     0.862571     0.618717  Biso 1.000000     H
    H   1.0     0.530553     0.961618     0.611082  Biso 1.000000     H
    H   1.0     0.470166     0.332321     0.453771  Biso 1.000000     H
    H   1.0     0.364252     0.436250     0.559701  Biso 1.000000     H
    H   1.0     0.350262     0.650213     0.592256  Biso 1.000000     H
    H   1.0     0.396257     0.569390     0.527105  Biso 1.000000     H
    H   1.0     0.375098     0.551578     0.629767  Biso 1.000000     H
    H   1.0     0.073871     0.478833     0.131001  Biso 1.000000     H
    H   1.0     0.073069     0.583680     0.026010  Biso 1.000000     H
    H   1.0     0.108596     0.582159     0.793869  Biso 1.000000     H
    H   1.0     0.013198     0.637338     0.881407  Biso 1.000000     H
    H   1.0     0.102930     0.538320     0.888990  Biso 1.000000     H
    H   1.0     0.255458     0.168436     0.046836  Biso 1.000000     H
    H   1.0     0.360253     0.064394     0.940999  Biso 1.000000     H
    H   1.0     0.592791     0.850629     0.908610  Biso 1.000000     H
    H   1.0     0.492803     0.931141     0.973876  Biso 1.000000     H
    H   1.0     0.556416     0.949361     0.871393  Biso 1.000000     H
    H   1.0     0.426181     0.368999     0.021173  Biso 1.000000     H
    H   1.0     0.426929     0.473973     0.916317  Biso 1.000000     H
    H   1.0     0.391349     0.706187     0.917811  Biso 1.000000     H
    H   1.0     0.486768     0.618638     0.862630  Biso 1.000000     H
    H   1.0     0.397077     0.611025     0.961624  Biso 1.000000     H
    H   1.0     0.244583     0.453165     0.331588  Biso 1.000000     H
    H   1.0     0.139743     0.559027     0.435607  Biso 1.000000     H
    H   1.0     0.907121     0.591425     0.649322  Biso 1.000000     H
    H   1.0     0.000000     0.526122     0.568854  Biso 1.000000     H
    H   1.0     0.943569     0.628637     0.550617  Biso 1.000000     H
    H   1.0     0.182871     0.869088     0.521262  Biso 1.000000     H
    H   1.0     0.181993     0.974050     0.416387  Biso 1.000000     H
    H   1.0     0.985292     0.206215     0.417726  Biso 1.000000     H
    H   1.0     0.031857     0.118673     0.362526  Biso 1.000000     H
    H   1.0     0.030574     0.111044     0.461540  Biso 1.000000     H
    H   1.0     0.970124     0.953767     0.832351  Biso 1.000000     H
    H   1.0     0.864272     0.059691     0.936265  Biso 1.000000     H
    H   1.0     0.850311     0.092224     0.150186  Biso 1.000000     H
    H   1.0     0.896293     0.027062     0.069379  Biso 1.000000     H
    H   1.0     0.875109     0.129759     0.051585  Biso 1.000000     H
    H   1.0     0.317097     0.978797     0.630867  Biso 1.000000     H
    H   1.0     0.317991     0.083629     0.525884  Biso 1.000000     H
    H   1.0     0.514665     0.082225     0.293777  Biso 1.000000     H
    H   1.0     0.468122     0.137451     0.381288  Biso 1.000000     H
    H   1.0     0.469423     0.038403     0.388923  Biso 1.000000     H
    H   1.0     0.529812     0.667697     0.546235  Biso 1.000000     H
    H   1.0     0.635716     0.563764     0.440309  Biso 1.000000     H
    H   1.0     0.649714     0.349802     0.407750  Biso 1.000000     H
    H   1.0     0.603718     0.430626     0.472901  Biso 1.000000     H
    H   1.0     0.624877     0.448438     0.370240  Biso 1.000000     H
    H   1.0     0.926105     0.521189     0.869006  Biso 1.000000     H
    H   1.0     0.926907     0.416342     0.973996  Biso 1.000000     H
    H   1.0     0.891378     0.417861     0.206137  Biso 1.000000     H
    H   1.0     0.986779     0.362682     0.118600  Biso 1.000000     H
    H   1.0     0.897047     0.461700     0.111016  Biso 1.000000     H
    H   1.0     0.744518     0.831582     0.953168  Biso 1.000000     H
    H   1.0     0.639723     0.935623     0.059005  Biso 1.000000     H
    H   1.0     0.407183     0.149390     0.091395  Biso 1.000000     H
    H   1.0     0.507170     0.068878     0.026131  Biso 1.000000     H
    H   1.0     0.443558     0.050659     0.128613  Biso 1.000000     H
    H   1.0     0.573794     0.631022     0.978833  Biso 1.000000     H
    H   1.0     0.573047     0.526048     0.083689  Biso 1.000000     H
    H   1.0     0.608630     0.293833     0.082191  Biso 1.000000     H
    H   1.0     0.513211     0.381382     0.137371  Biso 1.000000     H
    H   1.0     0.602903     0.388995     0.038378  Biso 1.000000     H
    H   1.0     0.755397     0.546854     0.668416  Biso 1.000000     H
    H   1.0     0.860227     0.440986     0.564402  Biso 1.000000     H
    H   1.0     0.092851     0.408596     0.350683  Biso 1.000000     H
    H   1.0    -0.007165     0.473897     0.431152  Biso 1.000000     H
    H   1.0     0.056407     0.371382     0.449388  Biso 1.000000     H
    C   1.0     0.788380     0.083310     0.478073  Biso 1.000000     C
    C   1.0     0.789000     0.024434     0.536320  Biso 1.000000     C
    C   1.0     0.838388     0.855082     0.623636  Biso 1.000000     C
    C   1.0     0.953580     0.854799     0.593965  Biso 1.000000     C
    C   1.0     0.102319     0.049584     0.117600  Biso 1.000000     C
    C   1.0     0.161371     0.990878     0.059064  Biso 1.000000     C
    C   1.0     0.274326     0.897195     0.895439  Biso 1.000000     C
    C   1.0     0.157151     0.912820     0.906674  Biso 1.000000     C
    C   1.0     0.711599     0.021921     0.416739  Biso 1.000000     C
    C   1.0     0.710975     0.963705     0.475625  Biso 1.000000     C
    C   1.0     0.661575     0.876429     0.644972  Biso 1.000000     C
    C   1.0     0.546384     0.906103     0.645252  Biso 1.000000     C
    C   1.0     0.397683     0.382379     0.450441  Biso 1.000000     C
    C   1.0     0.338604     0.440929     0.509154  Biso 1.000000     C
    C   1.0     0.225621     0.604564     0.602843  Biso 1.000000     C
    C   1.0     0.342792     0.593337     0.587225  Biso 1.000000     C
    C   1.0     0.150610     0.478102     0.083348  Biso 1.000000     C
    C   1.0     0.150609     0.536345     0.024468  Biso 1.000000     C
    C   1.0     0.182806     0.623580     0.855080  Biso 1.000000     C
    C   1.0     0.097436     0.593852     0.854835  Biso 1.000000     C
    C   1.0     0.230185     0.118059     0.049884  Biso 1.000000     C
    C   1.0     0.288843     0.059444     0.991230  Biso 1.000000     C
    C   1.0     0.433647     0.895762     0.897474  Biso 1.000000     C
    C   1.0     0.523505     0.907342     0.913620  Biso 1.000000     C
    C   1.0     0.349426     0.416639     0.021888  Biso 1.000000     C
    C   1.0     0.349404     0.475527     0.963661  Biso 1.000000     C
    C   1.0     0.317162     0.644939     0.876407  Biso 1.000000     C
    C   1.0     0.402536     0.645199     0.906117  Biso 1.000000     C
    C   1.0     0.269830     0.450110     0.381966  Biso 1.000000     C
    C   1.0     0.211158     0.508785     0.440562  Biso 1.000000     C
    C   1.0     0.066307     0.602534     0.604256  Biso 1.000000     C
    C   1.0     0.976436     0.586396     0.592644  Biso 1.000000     C
    C   1.0     0.211589     0.916712     0.521935  Biso 1.000000     C
    C   1.0     0.210979     0.975583     0.463683  Biso 1.000000     C
    C   1.0     0.161588     0.144937     0.376368  Biso 1.000000     C
    C   1.0     0.046396     0.145220     0.406038  Biso 1.000000     C
    C   1.0     0.897662     0.950432     0.882408  Biso 1.000000     C
    C   1.0     0.838602     0.009143     0.940939  Biso 1.000000     C
    C   1.0     0.725650     0.102823     0.104566  Biso 1.000000     C
    C   1.0     0.842825     0.087197     0.093330  Biso 1.000000     C
    C   1.0     0.288369     0.978104     0.583267  Biso 1.000000     C
    C   1.0     0.289003     0.036315     0.524377  Biso 1.000000     C
    C   1.0     0.338400     0.123592     0.355034  Biso 1.000000     C
    C   1.0     0.453591     0.093918     0.354754  Biso 1.000000     C
    C   1.0     0.602278     0.617629     0.549576  Biso 1.000000     C
    C   1.0     0.661371     0.559089     0.490852  Biso 1.000000     C
    C   1.0     0.774353     0.395456     0.397159  Biso 1.000000     C
    C   1.0     0.657183     0.406678     0.412781  Biso 1.000000     C
    C   1.0     0.849366     0.521920     0.916657  Biso 1.000000     C
    C   1.0     0.849367     0.463679     0.975539  Biso 1.000000     C
    C   1.0     0.817171     0.376439     0.144926  Biso 1.000000     C
    C   1.0     0.902540     0.406169     0.145171  Biso 1.000000     C
    C   1.0     0.769795     0.881956     0.950123  Biso 1.000000     C
    C   1.0     0.711130     0.940576     0.008773  Biso 1.000000     C
    C   1.0     0.566329     0.104257     0.102531  Biso 1.000000     C
    C   1.0     0.476469     0.092678     0.086386  Biso 1.000000     C
    C   1.0     0.650549     0.583382     0.978118  Biso 1.000000     C
    C   1.0     0.650572     0.524495     0.036347  Biso 1.000000     C
    C   1.0     0.682819     0.355080     0.123595  Biso 1.000000     C
    C   1.0     0.597444     0.354820     0.093886  Biso 1.000000     C
    C   1.0     0.730133     0.549897     0.618049  Biso 1.000000     C
    C   1.0     0.788820     0.491232     0.559442  Biso 1.000000     C
    C   1.0     0.933666     0.397488     0.395746  Biso 1.000000     C
    C   1.0     0.023537     0.413623     0.407362  Biso 1.000000     C
    C   1.0     0.750015     0.145222     0.354774  Biso 1.000000     C
    C   1.0     0.750004     0.082562     0.417445  Biso 1.000000     C
    C   1.0     0.749983     0.963549     0.536510  Biso 1.000000     C
    C   1.0     0.749982     0.901787     0.598278  Biso 1.000000     C
    C   1.0     0.250049     0.354763     0.145248  Biso 1.000000     C
    C   1.0     0.250030     0.417431     0.082586  Biso 1.000000     C
    C   1.0     0.249999     0.536458     0.963526  Biso 1.000000     C
    C   1.0     0.249990     0.598231     0.901769  Biso 1.000000     C
    C   1.0     0.249938     0.854804     0.645237  Biso 1.000000     C
    C   1.0     0.250003     0.917445     0.582547  Biso 1.000000     C
    C   1.0     0.249990     0.036471     0.463495  Biso 1.000000     C
    C   1.0     0.249993     0.098234     0.401727  Biso 1.000000     C
    C   1.0     0.749931     0.645260     0.854760  Biso 1.000000     C
    C   1.0     0.749945     0.582589     0.917418  Biso 1.000000     C
    C   1.0     0.749977     0.463562     0.036478  Biso 1.000000     C
    C   1.0     0.749988     0.401790     0.098236  Biso 1.000000     C
    C   1.0     0.073253     0.176588     0.176432  Biso 1.000000     C
    C   1.0     0.136135     0.113859     0.113766  Biso 1.000000     C
    C   1.0     0.255885     0.994478     0.994473  Biso 1.000000     C
    C   1.0     0.317748     0.932709     0.932700  Biso 1.000000     C
    C   1.0     0.426763     0.323521     0.323473  Biso 1.000000     C
    C   1.0     0.363946     0.386255     0.386134  Biso 1.000000     C
    C   1.0     0.244094     0.505541     0.505541  Biso 1.000000     C
    C   1.0     0.182206     0.567308     0.567317  Biso 1.000000     C
    C   1.0     0.926731     0.823426     0.823578  Biso 1.000000     C
    C   1.0     0.863830     0.886167     0.886232  Biso 1.000000     C
    C   1.0     0.744093     0.005539     0.005533  Biso 1.000000     C
    C   1.0     0.682227     0.067309     0.067305  Biso 1.000000     C
    C   1.0     0.573175     0.676470     0.676560  Biso 1.000000     C
    C   1.0     0.636085     0.613797     0.613838  Biso 1.000000     C
    C   1.0     0.755875     0.494473     0.494468  Biso 1.000000     C
    C   1.0     0.817766     0.432704     0.432694  Biso 1.000000     C
    N   1.0     0.804496     0.804862     0.681491  Biso 1.000000     N
    N   1.0     0.359172     0.843241     0.841423  Biso 1.000000     N
    N   1.0     0.695461     0.818570     0.695190  Biso 1.000000     N
    N   1.0     0.140772     0.658556     0.656819  Biso 1.000000     N
    N   1.0     0.209080     0.681448     0.804863  Biso 1.000000     N
    N   1.0     0.456907     0.841655     0.843355  Biso 1.000000     N
    N   1.0     0.290863     0.695159     0.818554  Biso 1.000000     N
    N   1.0     0.043041     0.656626     0.658392  Biso 1.000000     N
    N   1.0     0.195479     0.195158     0.318515  Biso 1.000000     N
    N   1.0     0.640803     0.156777     0.158581  Biso 1.000000     N
    N   1.0     0.304514     0.181450     0.304815  Biso 1.000000     N
    N   1.0     0.859204     0.341464     0.343183  Biso 1.000000     N
    N   1.0     0.790897     0.318570     0.195141  Biso 1.000000     N
    N   1.0     0.543066     0.158365     0.156650  Biso 1.000000     N
    N   1.0     0.709113     0.304860     0.181449  Biso 1.000000     N
    N   1.0     0.956934     0.343395     0.341610  Biso 1.000000     N
    O   1.0     0.767776     0.206036     0.365711  Biso 1.000000     O
    O   1.0     0.985568     0.171545     0.231570  Biso 1.000000     O
    O   1.0     0.732278     0.134257     0.293974  Biso 1.000000     O
    O   1.0     0.514497     0.268420     0.328466  Biso 1.000000     O
    O   1.0     0.161064     0.365856     0.206193  Biso 1.000000     O
    O   1.0     0.110332     0.232091     0.171732  Biso 1.000000     O
    O   1.0     0.339063     0.293823     0.134165  Biso 1.000000     O
    O   1.0     0.389721     0.328249     0.267958  Biso 1.000000     O
    O   1.0     0.232203     0.793982     0.634291  Biso 1.000000     O
    O   1.0     0.014407     0.828476     0.768434  Biso 1.000000     O
    O   1.0     0.267705     0.865758     0.706027  Biso 1.000000     O
    O   1.0     0.485487     0.731601     0.671534  Biso 1.000000     O
    O   1.0     0.838913     0.634164     0.793812  Biso 1.000000     O
    O   1.0     0.889644     0.767928     0.828271  Biso 1.000000     O
    O   1.0     0.660915     0.706198     0.865841  Biso 1.000000     O
    O   1.0     0.610262     0.671775     0.732043  Biso 1.000000     O
   Zn   1.0     0.848833     0.265724     0.280633  Biso 1.000000    Zn
   Zn   1.0     0.651193     0.219340     0.234294  Biso 1.000000    Zn
   Zn   1.0     0.105021     0.280904     0.265915  Biso 1.000000    Zn
   Zn   1.0     0.395002     0.234071     0.219134  Biso 1.000000    Zn
   Zn   1.0     0.151143     0.734296     0.719371  Biso 1.000000    Zn
   Zn   1.0     0.348788     0.780675     0.765709  Biso 1.000000    Zn
   Zn   1.0     0.894955     0.719115     0.734090  Biso 1.000000    Zn
   Zn   1.0     0.604973     0.765952     0.780874  Biso 1.000000    Zn
