#======================================================================

# CRYSTAL DATA

#----------------------------------------------------------------------

data_VESTA_phase_1


_pd_phase_name                         MOF
_cell_length_a                         14.99200
_cell_length_b                         15.01700
_cell_length_c                         16.44100
_cell_angle_alpha                      117.07800
_cell_angle_beta                       117.01500
_cell_angle_gamma                      90.09700
_symmetry_space_group_name_H-M         "P 1"
_symmetry_Int_Tables_number            1

loop_
_symmetry_equiv_pos_as_xyz
   "x, y, z"

loop_
   _atom_site_label
   _atom_site_occupancy
   _atom_site_fract_x
   _atom_site_fract_y
   _atom_site_fract_z
   _atom_site_adp_type
   _atom_site_B_iso_or_equiv
   _atom_site_type_symbol
    H   1.0     0.707008     0.332597     0.000000  Biso 1.000000     H
    H   1.0     0.720500     0.157465     0.899990  Biso 1.000000     H
    H   1.0     0.892187     0.118574     0.946289  Biso 1.000000     H
    H   1.0     0.083207     0.177782     0.063163  Biso 1.000000     H
    H   1.0     0.242814     0.315875     0.217173  Biso 1.000000     H
    H   1.0     0.230570     0.493840     0.323629  Biso 1.000000     H
    H   1.0     0.061163     0.532676     0.274924  Biso 1.000000     H
    H   1.0     0.029787     0.872206     0.552526  Biso 1.000000     H
    H   1.0     0.964001     0.970623     0.588114  Biso 1.000000     H
    H   1.0     0.856167     0.013617     0.452091  Biso 1.000000     H
    H   1.0     0.850755     0.944366     0.327253  Biso 1.000000     H
    H   1.0     0.800032     0.674116     0.000000  Biso 1.000000     H
    H   1.0     0.679919     0.742604     0.899463  Biso 1.000000     H
    H   1.0     0.554627     0.827876     0.945972  Biso 1.000000     H
    H   1.0     0.480795     0.885944     0.063413  Biso 1.000000     H
    H   1.0     0.475354     0.901911     0.217744  Biso 1.000000     H
    H   1.0     0.593981     0.830235     0.324136  Biso 1.000000     H
    H   1.0     0.714426     0.742483     0.275009  Biso 1.000000     H
    H   1.0     0.023499     0.680309     0.552553  Biso 1.000000     H
    H   1.0     0.124329     0.616976     0.588117  Biso 1.000000     H
    H   1.0     0.095845     0.437965     0.452112  Biso 1.000000     H
    H   1.0     0.976743     0.382896     0.327252  Biso 1.000000     H
    H   1.0     0.832303     0.299852     0.506606  Biso 1.000000     H
    H   1.0     0.656991     0.179617     0.399808  Biso 1.000000     H
    H   1.0     0.617871     0.054007     0.445868  Biso 1.000000     H
    H   1.0     0.676954     0.979813     0.562740  Biso 1.000000     H
    H   1.0     0.815055     0.974231     0.716745  Biso 1.000000     H
    H   1.0     0.993158     0.093214     0.823474  Biso 1.000000     H
    H   1.0     0.032131     0.214118     0.774936  Biso 1.000000     H
    H   1.0     0.372198     0.523173     0.052934  Biso 1.000000     H
    H   1.0     0.471144     0.624067     0.088315  Biso 1.000000     H
    H   1.0     0.514209     0.595738     0.952026  Biso 1.000000     H
    H   1.0     0.444415     0.476667     0.827187  Biso 1.000000     H
    H   1.0     0.174082     0.206750     0.506016  Biso 1.000000     H
    H   1.0     0.242981     0.220560     0.399417  Biso 1.000000     H
    H   1.0     0.328409     0.392174     0.445860  Biso 1.000000     H
    H   1.0     0.386252     0.583097     0.563113  Biso 1.000000     H
    H   1.0     0.401934     0.742292     0.717300  Biso 1.000000     H
    H   1.0     0.329892     0.729646     0.823644  Biso 1.000000     H
    H   1.0     0.242094     0.560221     0.774603  Biso 1.000000     H
    H   1.0     0.180349     0.529065     0.051798  Biso 1.000000     H
    H   1.0     0.117282     0.464129     0.088085  Biso 1.000000     H
    H   1.0     0.937793     0.356620     0.952603  Biso 1.000000     H
    H   1.0     0.882431     0.350697     0.827581  Biso 1.000000     H
    H   1.0     0.293021     0.667438    -0.006551  Biso 1.000000     H
    H   1.0     0.279529     0.842571     0.100025  Biso 1.000000     H
    H   1.0     0.107843     0.881463     0.053728  Biso 1.000000     H
    H   1.0     0.916822     0.822255     0.936852  Biso 1.000000     H
    H   1.0     0.757215     0.684162     0.782842  Biso 1.000000     H
    H   1.0     0.769458     0.506198     0.676385  Biso 1.000000     H
    H   1.0     0.938866     0.467362     0.725092  Biso 1.000000     H
    H   1.0     0.970248     0.127829     0.447489  Biso 1.000000     H
    H   1.0     0.036033     0.029413     0.411902  Biso 1.000000     H
    H   1.0     0.143867     0.986419     0.547925  Biso 1.000000     H
    H   1.0     0.149279     0.055669     0.672761  Biso 1.000000     H
    H   1.0     0.199997     0.325921    -0.006106  Biso 1.000000     H
    H   1.0     0.320111     0.257434     0.100555  Biso 1.000000     H
    H   1.0     0.445402     0.172161     0.054046  Biso 1.000000     H
    H   1.0     0.519234     0.114093     0.936605  Biso 1.000000     H
    H   1.0     0.524677     0.098127     0.782274  Biso 1.000000     H
    H   1.0     0.406050     0.169803     0.675882  Biso 1.000000     H
    H   1.0     0.285606     0.257558     0.725011  Biso 1.000000     H
    H   1.0     0.976525     0.319728     0.447462  Biso 1.000000     H
    H   1.0     0.875696     0.383063     0.411901  Biso 1.000000     H
    H   1.0     0.904180     0.562072     0.547905  Biso 1.000000     H
    H   1.0     0.023282     0.617142     0.672764  Biso 1.000000     H
    H   1.0     0.167727     0.700185     0.493410  Biso 1.000000     H
    H   1.0     0.343039     0.820421     0.600208  Biso 1.000000     H
    H   1.0     0.382159     0.946031     0.554149  Biso 1.000000     H
    H   1.0     0.323076     0.020226     0.437277  Biso 1.000000     H
    H   1.0     0.184975     0.025807     0.283272  Biso 1.000000     H
    H   1.0     0.006872     0.906824     0.176543  Biso 1.000000     H
    H   1.0     0.967900     0.785918     0.225079  Biso 1.000000     H
    H   1.0     0.627830     0.476869     0.947086  Biso 1.000000     H
    H   1.0     0.528884     0.375975     0.911705  Biso 1.000000     H
    H   1.0     0.485818     0.404302     0.047993  Biso 1.000000     H
    H   1.0     0.555613     0.523374     0.172833  Biso 1.000000     H
    H   1.0     0.825952     0.793287     0.494001  Biso 1.000000     H
    H   1.0     0.757049     0.779477     0.600599  Biso 1.000000     H
    H   1.0     0.671622     0.607863     0.554156  Biso 1.000000     H
    H   1.0     0.613780     0.416941     0.436904  Biso 1.000000     H
    H   1.0     0.598095     0.257746     0.282716  Biso 1.000000     H
    H   1.0     0.670136     0.270391     0.176371  Biso 1.000000     H
    H   1.0     0.757933     0.439815     0.225410  Biso 1.000000     H
    H   1.0     0.819680     0.470973     0.948218  Biso 1.000000     H
    H   1.0     0.882745     0.535907     0.911927  Biso 1.000000     H
    H   1.0     0.062239     0.643420     0.047414  Biso 1.000000     H
    H   1.0     0.117598     0.649341     0.172435  Biso 1.000000     H
   Li   1.0     0.751418     0.560371     0.172322  Biso 1.000000    Li
   Li   1.0     0.921266     0.612264     0.172430  Biso 1.000000    Li
   Li   1.0     0.060171     0.420898     0.672264  Biso 1.000000    Li
   Li   1.0     0.111915     0.251277     0.672320  Biso 1.000000    Li
   Li   1.0     0.248610     0.439667     0.827696  Biso 1.000000    Li
   Li   1.0     0.078762     0.387771     0.827584  Biso 1.000000    Li
   Li   1.0     0.939861     0.579138     0.327752  Biso 1.000000    Li
   Li   1.0     0.888117     0.748759     0.327695  Biso 1.000000    Li
    C   1.0     0.870965     0.397869     0.114544  Biso 1.000000     C
    C   1.0     0.783114     0.317227     0.027577  Biso 1.000000     C
    C   1.0     0.791254     0.217703     0.967829  Biso 1.000000     C
    C   1.0     0.886419     0.195548     0.993288  Biso 1.000000     C
    C   1.0     0.978334     0.274110     0.081318  Biso 1.000000     C
    C   1.0     0.078182     0.255239     0.110400  Biso 1.000000     C
    C   1.0     0.167096     0.332263     0.196002  Biso 1.000000     C
    C   1.0     0.160351     0.432758     0.256247  Biso 1.000000     C
    C   1.0     0.064724     0.454065     0.229470  Biso 1.000000     C
    C   1.0     0.971595     0.376417     0.142859  Biso 1.000000     C
    C   1.0     0.000000     0.938137     0.544698  Biso 1.000000     C
    C   1.0     0.098723     0.019956     0.586429  Biso 1.000000     C
    C   1.0     0.744043     0.716797     0.114301  Biso 1.000000     C
    C   1.0     0.744965     0.710496     0.027229  Biso 1.000000     C
    C   1.0     0.677044     0.750246     0.967435  Biso 1.000000     C
    C   1.0     0.607393     0.797922     0.993025  Biso 1.000000     C
    C   1.0     0.603565     0.807466     0.081233  Biso 1.000000     C
    C   1.0     0.532987     0.855606     0.110580  Biso 1.000000     C
    C   1.0     0.529769     0.864220     0.196370  Biso 1.000000     C
    C   1.0     0.596706     0.823886     0.256583  Biso 1.000000     C
    C   1.0     0.665397     0.775660     0.229554  Biso 1.000000     C
    C   1.0     0.671820     0.766660     0.142761  Biso 1.000000     C
    C   1.0     0.039807     0.606435     0.544687  Biso 1.000000     C
    C   1.0    -0.012316     0.566645     0.586436  Biso 1.000000     C
    C   1.0     0.897439     0.243731     0.614461  Biso 1.000000     C
    C   1.0     0.816833     0.244675     0.527526  Biso 1.000000     C
    C   1.0     0.717200     0.176677     0.467640  Biso 1.000000     C
    C   1.0     0.694922     0.106852     0.492977  Biso 1.000000     C
    C   1.0     0.773444     0.102964     0.581034  Biso 1.000000     C
    C   1.0     0.754475     0.032121     0.610034  Biso 1.000000     C
    C   1.0     0.831503     0.028837     0.695655  Biso 1.000000     C
    C   1.0     0.932079     0.095979     0.756045  Biso 1.000000     C
    C   1.0     0.953460     0.164928     0.729349  Biso 1.000000     C
    C   1.0     0.875835     0.171354     0.642685  Biso 1.000000     C
    C   1.0     0.438234     0.539613     0.044898  Biso 1.000000     C
    C   1.0     0.519781     0.487730     0.086479  Biso 1.000000     C
    C   1.0     0.216785     0.370530     0.614162  Biso 1.000000     C
    C   1.0     0.210548     0.282850     0.527115  Biso 1.000000     C
    C   1.0     0.250509     0.291167     0.467327  Biso 1.000000     C
    C   1.0     0.298263     0.386312     0.492876  Biso 1.000000     C
    C   1.0     0.307658     0.478054     0.581013  Biso 1.000000     C
    C   1.0     0.355786     0.577881     0.610274  Biso 1.000000     C
    C   1.0     0.364241     0.666573     0.695986  Biso 1.000000     C
    C   1.0     0.323714     0.659627     0.756180  Biso 1.000000     C
    C   1.0     0.275482     0.563990     0.729218  Biso 1.000000     C
    C   1.0     0.266657     0.471104     0.642523  Biso 1.000000     C
    C   1.0     0.106534     0.504979     0.044384  Biso 1.000000     C
    C   1.0     0.066886     0.598640     0.086151  Biso 1.000000     C
    C   1.0     0.129062     0.602167     0.885472  Biso 1.000000     C
    C   1.0     0.216914     0.682808     0.972439  Biso 1.000000     C
    C   1.0     0.208775     0.782333     0.032187  Biso 1.000000     C
    C   1.0     0.113610     0.804488     0.006729  Biso 1.000000     C
    C   1.0     0.021694     0.725928     0.918697  Biso 1.000000     C
    C   1.0     0.921847     0.744798     0.889617  Biso 1.000000     C
    C   1.0     0.832933     0.667775     0.804013  Biso 1.000000     C
    C   1.0     0.839677     0.567280     0.743768  Biso 1.000000     C
    C   1.0     0.935305     0.545972     0.770545  Biso 1.000000     C
    C   1.0     0.028434     0.623619     0.857159  Biso 1.000000     C
    C   1.0    -0.005226     0.061897     0.455317  Biso 1.000000     C
    C   1.0     0.901311     0.980079     0.413586  Biso 1.000000     C
    C   1.0     0.255985     0.283239     0.885715  Biso 1.000000     C
    C   1.0     0.255068     0.289546     0.972791  Biso 1.000000     C
    C   1.0     0.322986     0.249792     0.032583  Biso 1.000000     C
    C   1.0     0.392639     0.202120     0.006995  Biso 1.000000     C
    C   1.0     0.396461     0.192567     0.918781  Biso 1.000000     C
    C   1.0     0.467046     0.144436     0.889441  Biso 1.000000     C
    C   1.0     0.470260     0.135816     0.803647  Biso 1.000000     C
    C   1.0     0.403327     0.176154     0.743436  Biso 1.000000     C
    C   1.0     0.334630     0.224375     0.770461  Biso 1.000000     C
    C   1.0     0.328216     0.233386     0.857262  Biso 1.000000     C
    C   1.0     0.960218     0.393603     0.455329  Biso 1.000000     C
    C   1.0     0.000000     0.433392     0.413581  Biso 1.000000     C
    C   1.0     0.102592     0.756305     0.385554  Biso 1.000000     C
    C   1.0     0.183198     0.755360     0.472488  Biso 1.000000     C
    C   1.0     0.282830     0.823360     0.532377  Biso 1.000000     C
    C   1.0     0.305108     0.893184     0.507038  Biso 1.000000     C
    C   1.0     0.226586     0.897075     0.418983  Biso 1.000000     C
    C   1.0     0.245555     0.967916     0.389981  Biso 1.000000     C
    C   1.0     0.168527     0.971202     0.304362  Biso 1.000000     C
    C   1.0     0.067952     0.904058     0.243971  Biso 1.000000     C
    C   1.0     0.046570     0.835110     0.270667  Biso 1.000000     C
    C   1.0     0.124196     0.828680     0.357328  Biso 1.000000     C
    C   1.0     0.561795     0.460428     0.955122  Biso 1.000000     C
    C   1.0     0.480247     0.512311     0.913541  Biso 1.000000     C
    C   1.0     0.783250     0.629507     0.385857  Biso 1.000000     C
    C   1.0     0.789477     0.717187     0.472897  Biso 1.000000     C
    C   1.0     0.749522     0.708871     0.532688  Biso 1.000000     C
    C   1.0     0.701763     0.613726     0.507137  Biso 1.000000     C
    C   1.0     0.692380     0.521983     0.419008  Biso 1.000000     C
    C   1.0     0.644238     0.422157     0.389737  Biso 1.000000     C
    C   1.0     0.635792     0.333464     0.304032  Biso 1.000000     C
    C   1.0     0.676313     0.340410     0.243833  Biso 1.000000     C
    C   1.0     0.724553     0.436046     0.270801  Biso 1.000000     C
    C   1.0     0.733362     0.528933     0.357484  Biso 1.000000     C
    C   1.0     0.893494     0.495059     0.955631  Biso 1.000000     C
    C   1.0     0.933143     0.401399     0.913865  Biso 1.000000     C
    O   1.0     0.807446     0.678270     0.170615  Biso 1.000000     O
    O   1.0     0.934153     0.897379     0.432546  Biso 1.000000     O
    O   1.0     0.863686     0.492615     0.170766  Biso 1.000000     O
    O   1.0     0.998909     0.535144     0.432537  Biso 1.000000     O
    O   1.0     0.178169     0.363270     0.670540  Biso 1.000000     O
    O   1.0     0.397406     0.498763     0.932738  Biso 1.000000     O
    O   1.0     0.992329     0.307220     0.670771  Biso 1.000000     O
    O   1.0     0.034906     0.433745     0.932379  Biso 1.000000     O
    O   1.0     0.192581     0.321764     0.829400  Biso 1.000000     O
    O   1.0     0.065883     0.102656     0.567469  Biso 1.000000     O
    O   1.0     0.136340     0.507420     0.829250  Biso 1.000000     O
    O   1.0     0.001116     0.464893     0.567480  Biso 1.000000     O
    O   1.0     0.821869     0.636767     0.329481  Biso 1.000000     O
    O   1.0     0.602622     0.501280     0.067283  Biso 1.000000     O
    O   1.0     0.007702     0.692815     0.329242  Biso 1.000000     O
    O   1.0     0.965123     0.566295     0.067636  Biso 1.000000     O
