#======================================================================

# CRYSTAL DATA

#----------------------------------------------------------------------

data_VESTA_phase_1


_pd_phase_name                         MOF
_cell_length_a                         20.85100
_cell_length_b                         20.49900
_cell_length_c                         22.24400
_cell_angle_alpha                      90.04500
_cell_angle_beta                       90.02600
_cell_angle_gamma                      96.20600
_symmetry_space_group_name_H-M         "P 1"
_symmetry_Int_Tables_number            1

loop_
_symmetry_equiv_pos_as_xyz
   "x, y, z"

loop_
   _atom_site_label
   _atom_site_occupancy
   _atom_site_fract_x
   _atom_site_fract_y
   _atom_site_fract_z
   _atom_site_adp_type
   _atom_site_B_iso_or_equiv
   _atom_site_type_symbol
    H   1.0     0.066769     0.925442     0.095941  Biso 1.000000     H
    H   1.0     0.567018     0.925463     0.096097  Biso 1.000000     H
    H   1.0     0.031495     0.000000     0.081433  Biso 1.000000     H
    H   1.0     0.531436     0.000000     0.081431  Biso 1.000000     H
    H   1.0     0.108040     0.000000     0.121546  Biso 1.000000     H
    H   1.0     0.608025     0.000000     0.121531  Biso 1.000000     H
    H   1.0     0.183364     0.574952     0.596374  Biso 1.000000     H
    H   1.0     0.683314     0.574763     0.596463  Biso 1.000000     H
    H   1.0     0.218285     0.500118     0.581307  Biso 1.000000     H
    H   1.0     0.718142     0.499883     0.581369  Biso 1.000000     H
    H   1.0     0.141766     0.498057     0.621414  Biso 1.000000     H
    H   1.0     0.641591     0.497893     0.621415  Biso 1.000000     H
    H   1.0     0.433974     0.074091     0.904561  Biso 1.000000     H
    H   1.0     0.933412     0.074622     0.904064  Biso 1.000000     H
    H   1.0     0.469731    -0.000491     0.918981  Biso 1.000000     H
    H   1.0     0.968806    -0.000069     0.918684  Biso 1.000000     H
    H   1.0     0.393403    -0.002795     0.878488  Biso 1.000000     H
    H   1.0     0.892311    -0.002272     0.878465  Biso 1.000000     H
    H   1.0     0.316719     0.425024     0.403580  Biso 1.000000     H
    H   1.0     0.816706     0.425398     0.403439  Biso 1.000000     H
    H   1.0     0.281820     0.499878     0.418582  Biso 1.000000     H
    H   1.0     0.781931     0.500293     0.418596  Biso 1.000000     H
    H   1.0     0.358366     0.501881     0.378526  Biso 1.000000     H
    H   1.0     0.858498     0.502268     0.378574  Biso 1.000000     H
    C   1.0     0.104672     0.899486     0.789791  Biso 1.000000     C
    C   1.0     0.604386     0.899256     0.789984  Biso 1.000000     C
    C   1.0     0.117074     0.939781     0.658650  Biso 1.000000     C
    C   1.0     0.616982     0.939807     0.658885  Biso 1.000000     C
    C   1.0     0.091329     0.816093     0.580179  Biso 1.000000     C
    C   1.0     0.591397     0.816248     0.580227  Biso 1.000000     C
    C   1.0     0.058625     0.697717     0.665360  Biso 1.000000     C
    C   1.0     0.558718     0.697702     0.665215  Biso 1.000000     C
    C   1.0     0.068204     0.749176     0.794822  Biso 1.000000     C
    C   1.0     0.568161     0.748932     0.794759  Biso 1.000000     C
    C   1.0     0.094804     0.856512     0.740607  Biso 1.000000     C
    C   1.0     0.594680     0.856379     0.740715  Biso 1.000000     C
    C   1.0     0.101374     0.875299     0.679243  Biso 1.000000     C
    C   1.0     0.601303     0.875283     0.679384  Biso 1.000000     C
    C   1.0     0.089572     0.817723     0.643290  Biso 1.000000     C
    C   1.0     0.589592     0.817766     0.643339  Biso 1.000000     C
    C   1.0     0.075551     0.763320     0.682500  Biso 1.000000     C
    C   1.0     0.575583     0.763283     0.682458  Biso 1.000000     C
    C   1.0     0.078771     0.787332     0.742706  Biso 1.000000     C
    C   1.0     0.578719     0.787184     0.742700  Biso 1.000000     C
    C   1.0     0.278625     0.920740     0.776448  Biso 1.000000     C
    C   1.0     0.778375     0.920906     0.776261  Biso 1.000000     C
    C   1.0     0.292583     0.981837     0.650536  Biso 1.000000     C
    C   1.0     0.792419     0.981744     0.650284  Biso 1.000000     C
    C   1.0     0.269742     0.869520     0.557482  Biso 1.000000     C
    C   1.0     0.769657     0.869298     0.557395  Biso 1.000000     C
    C   1.0     0.235850     0.740695     0.627043  Biso 1.000000     C
    C   1.0     0.735844     0.740539     0.627133  Biso 1.000000     C
    C   1.0     0.241691     0.772166     0.761723  Biso 1.000000     C
    C   1.0     0.741633     0.772244     0.761764  Biso 1.000000     C
    C   1.0     0.271106     0.886612     0.721689  Biso 1.000000     C
    C   1.0     0.770961     0.886640     0.721569  Biso 1.000000     C
    C   1.0     0.277983     0.914764     0.663276  Biso 1.000000     C
    C   1.0     0.777849     0.914689     0.663117  Biso 1.000000     C
    C   1.0     0.266309     0.863135     0.620351  Biso 1.000000     C
    C   1.0     0.766229     0.862980     0.620267  Biso 1.000000     C
    C   1.0     0.251853     0.803277     0.652348  Biso 1.000000     C
    C   1.0     0.751807     0.803172     0.652347  Biso 1.000000     C
    C   1.0     0.254772     0.817743     0.714950  Biso 1.000000     C
    C   1.0     0.754690     0.817751     0.714930  Biso 1.000000     C
    C   1.0     0.076599     0.978293     0.086857  Biso 1.000000     C
    C   1.0     0.576645     0.978305     0.086896  Biso 1.000000     C
    C   1.0     0.160989     0.244529     0.783142  Biso 1.000000     C
    C   1.0     0.660958     0.244415     0.783342  Biso 1.000000     C
    C   1.0     0.187005     0.394842     0.774829  Biso 1.000000     C
    C   1.0     0.687001     0.394685     0.774862  Biso 1.000000     C
    C   1.0     0.199023     0.449942     0.902732  Biso 1.000000     C
    C   1.0     0.699139     0.449965     0.902702  Biso 1.000000     C
    C   1.0     0.182014     0.333286    -0.008668  Biso 1.000000     C
    C   1.0     0.682033     0.333477    -0.008558  Biso 1.000000     C
    C   1.0     0.157898     0.206584     0.917307  Biso 1.000000     C
    C   1.0     0.657800     0.206642     0.917571  Biso 1.000000     C
    C   1.0     0.168504     0.288140     0.832083  Biso 1.000000     C
    C   1.0     0.668474     0.288073     0.832249  Biso 1.000000     C
    C   1.0     0.181231     0.357650     0.828102  Biso 1.000000     C
    C   1.0     0.681234     0.357575     0.828183  Biso 1.000000     C
    C   1.0     0.187622     0.383120     0.887578  Biso 1.000000     C
    C   1.0     0.687651     0.383128     0.887626  Biso 1.000000     C
    C   1.0     0.178959     0.329345     0.928357  Biso 1.000000     C
    C   1.0     0.678960     0.329415     0.928473  Biso 1.000000     C
    C   1.0     0.167153     0.270622     0.894061  Biso 1.000000     C
    C   1.0     0.667118     0.270645     0.894250  Biso 1.000000     C
    C   1.0     0.145275     0.600562     0.289036  Biso 1.000000     C
    C   1.0     0.645236     0.600843     0.289135  Biso 1.000000     C
    C   1.0     0.132997     0.560835     0.157691  Biso 1.000000     C
    C   1.0     0.632912     0.560974     0.157855  Biso 1.000000     C
    C   1.0     0.158521     0.684861     0.079870  Biso 1.000000     C
    C   1.0     0.658626     0.684884     0.079890  Biso 1.000000     C
    C   1.0     0.190972     0.802923     0.165700  Biso 1.000000     C
    C   1.0     0.691232     0.803025     0.165586  Biso 1.000000     C
    C   1.0     0.181328     0.750913     0.294876  Biso 1.000000     C
    C   1.0     0.681562     0.751200     0.294818  Biso 1.000000     C
    C   1.0     0.155014     0.643774     0.240089  Biso 1.000000     C
    C   1.0     0.655067     0.644002     0.240155  Biso 1.000000     C
    C   1.0     0.148517     0.625251     0.178622  Biso 1.000000     C
    C   1.0     0.648542     0.625404     0.178709  Biso 1.000000     C
    C   1.0     0.160217     0.682994     0.142976  Biso 1.000000     C
    C   1.0     0.660329     0.683091     0.142998  Biso 1.000000     C
    C   1.0     0.174094     0.737239     0.182482  Biso 1.000000     C
    C   1.0     0.674287     0.737375     0.182443  Biso 1.000000     C
    C   1.0     0.170878     0.712966     0.242560  Biso 1.000000     C
    C   1.0     0.671044     0.713182     0.242550  Biso 1.000000     C
    C   1.0     0.471390     0.579395     0.276342  Biso 1.000000     C
    C   1.0     0.971481     0.579469     0.276311  Biso 1.000000     C
    C   1.0     0.457400     0.518583     0.150299  Biso 1.000000     C
    C   1.0     0.957570     0.518501     0.150306  Biso 1.000000     C
    C   1.0     0.480163     0.631057     0.057573  Biso 1.000000     C
    C   1.0     0.980254     0.630879     0.057487  Biso 1.000000     C
    C   1.0     0.013904     0.759713     0.127324  Biso 1.000000     C
    C   1.0     0.514015     0.759794     0.127533  Biso 1.000000     C
    C   1.0     0.508084     0.728113     0.262101  Biso 1.000000     C
    C   1.0     0.000000     0.728167     0.261935  Biso 1.000000     C
    C   1.0     0.478786     0.613698     0.221723  Biso 1.000000     C
    C   1.0     0.978862     0.613700     0.221654  Biso 1.000000     C
    C   1.0     0.471930     0.585651     0.163220  Biso 1.000000     C
    C   1.0     0.972040     0.585584     0.163177  Biso 1.000000     C
    C   1.0     0.483557     0.637363     0.120459  Biso 1.000000     C
    C   1.0     0.983623     0.637254     0.120368  Biso 1.000000     C
    C   1.0     0.497966     0.697172     0.152644  Biso 1.000000     C
    C   1.0     0.997964     0.697106     0.152498  Biso 1.000000     C
    C   1.0     0.495047     0.682590     0.215201  Biso 1.000000     C
    C   1.0     0.995057     0.682592     0.215068  Biso 1.000000     C
    C   1.0     0.173275     0.522179     0.586927  Biso 1.000000     C
    C   1.0     0.673163     0.522006     0.586969  Biso 1.000000     C
    C   1.0     0.089560     0.256181     0.283248  Biso 1.000000     C
    C   1.0     0.589595     0.256113     0.283371  Biso 1.000000     C
    C   1.0     0.063516     0.105945     0.274517  Biso 1.000000     C
    C   1.0     0.563480     0.105861     0.274699  Biso 1.000000     C
    C   1.0     0.051233     0.050649     0.402280  Biso 1.000000     C
    C   1.0     0.551164     0.050636     0.402473  Biso 1.000000     C
    C   1.0     0.068408     0.167063     0.491182  Biso 1.000000     C
    C   1.0     0.568439     0.167092     0.491334  Biso 1.000000     C
    C   1.0     0.092846     0.293967     0.417546  Biso 1.000000     C
    C   1.0     0.592923     0.293951     0.417653  Biso 1.000000     C
    C   1.0     0.082074     0.212536     0.332096  Biso 1.000000     C
    C   1.0     0.582100     0.212483     0.332231  Biso 1.000000     C
    C   1.0     0.069273     0.143037     0.327909  Biso 1.000000     C
    C   1.0     0.569265     0.142985     0.328070  Biso 1.000000     C
    C   1.0     0.062820     0.117479     0.387304  Biso 1.000000     C
    C   1.0     0.562803     0.117456     0.387476  Biso 1.000000     C
    C   1.0     0.071536     0.171187     0.428243  Biso 1.000000     C
    C   1.0     0.571549     0.171181     0.428394  Biso 1.000000     C
    C   1.0     0.083432     0.229962     0.394126  Biso 1.000000     C
    C   1.0     0.583469     0.229938     0.394254  Biso 1.000000     C
    C   1.0     0.395851     0.100707     0.209692  Biso 1.000000     C
    C   1.0     0.895799     0.100909     0.210034  Biso 1.000000     C
    C   1.0     0.383062     0.060008     0.340783  Biso 1.000000     C
    C   1.0     0.883199     0.060598     0.341194  Biso 1.000000     C
    C   1.0     0.408614     0.183501     0.419545  Biso 1.000000     C
    C   1.0     0.908754     0.184279     0.419665  Biso 1.000000     C
    C   1.0     0.441427     0.302114     0.334672  Biso 1.000000     C
    C   1.0     0.941441     0.302687     0.334505  Biso 1.000000     C
    C   1.0     0.432136     0.250988     0.205078  Biso 1.000000     C
    C   1.0     0.932058     0.251216     0.205031  Biso 1.000000     C
    C   1.0     0.405501     0.143509     0.259024  Biso 1.000000     C
    C   1.0     0.905515     0.143874     0.259237  Biso 1.000000     C
    C   1.0     0.398795     0.124546     0.320336  Biso 1.000000     C
    C   1.0     0.898884     0.125081     0.320595  Biso 1.000000     C
    C   1.0     0.410481     0.182030     0.356433  Biso 1.000000     C
    C   1.0     0.910584     0.182663     0.356556  Biso 1.000000     C
    C   1.0     0.424558     0.236550     0.317368  Biso 1.000000     C
    C   1.0     0.924597     0.237075     0.317355  Biso 1.000000     C
    C   1.0     0.421490     0.212704     0.257106  Biso 1.000000     C
    C   1.0     0.921476     0.213065     0.257149  Biso 1.000000     C
    C   1.0     0.221861     0.078924     0.223532  Biso 1.000000     C
    C   1.0     0.721811     0.079487     0.223522  Biso 1.000000     C
    C   1.0     0.207653     0.018118     0.349503  Biso 1.000000     C
    C   1.0     0.707684     0.018582     0.349474  Biso 1.000000     C
    C   1.0     0.230321     0.130606     0.442389  Biso 1.000000     C
    C   1.0     0.730436     0.130979     0.442414  Biso 1.000000     C
    C   1.0     0.264163     0.259331     0.372654  Biso 1.000000     C
    C   1.0     0.764324     0.259769     0.372732  Biso 1.000000     C
    C   1.0     0.258529     0.227585     0.238008  Biso 1.000000     C
    C   1.0     0.758551     0.228125     0.238088  Biso 1.000000     C
    C   1.0     0.229184     0.113207     0.278220  Biso 1.000000     C
    C   1.0     0.729207     0.113717     0.278233  Biso 1.000000     C
    C   1.0     0.222235     0.085172     0.336673  Biso 1.000000     C
    C   1.0     0.722286     0.085641     0.336671  Biso 1.000000     C
    C   1.0     0.233803     0.136894     0.379517  Biso 1.000000     C
    C   1.0     0.733899     0.137328     0.379546  Biso 1.000000     C
    C   1.0     0.248246     0.196695     0.347431  Biso 1.000000     C
    C   1.0     0.748350     0.197149     0.347492  Biso 1.000000     C
    C   1.0     0.245432     0.182099     0.284851  Biso 1.000000     C
    C   1.0     0.745487     0.182600     0.284904  Biso 1.000000     C
    C   1.0     0.424507     0.021169     0.913435  Biso 1.000000     C
    C   1.0     0.923666     0.021771     0.913179  Biso 1.000000     C
    C   1.0     0.338650     0.754423     0.216662  Biso 1.000000     C
    C   1.0     0.839101     0.755737     0.216553  Biso 1.000000     C
    C   1.0     0.312717     0.604037     0.224759  Biso 1.000000     C
    C   1.0     0.813011     0.605470     0.225014  Biso 1.000000     C
    C   1.0     0.300682     0.549192     0.096756  Biso 1.000000     C
    C   1.0     0.800958     0.550200     0.097177  Biso 1.000000     C
    C   1.0     0.317783     0.665982     0.000000  Biso 1.000000     C
    C   1.0     0.818159     0.666697     0.000000  Biso 1.000000     C
    C   1.0     0.341810     0.792542     0.082551  Biso 1.000000     C
    C   1.0     0.842355     0.793524     0.082322  Biso 1.000000     C
    C   1.0     0.331186     0.710863     0.167676  Biso 1.000000     C
    C   1.0     0.831608     0.712086     0.167640  Biso 1.000000     C
    C   1.0     0.318464     0.641344     0.171553  Biso 1.000000     C
    C   1.0     0.818830     0.642586     0.171698  Biso 1.000000     C
    C   1.0     0.312095     0.615975     0.112040  Biso 1.000000     C
    C   1.0     0.812451     0.617037     0.112251  Biso 1.000000     C
    C   1.0     0.320785     0.669816     0.071338  Biso 1.000000     C
    C   1.0     0.821185     0.670752     0.071409  Biso 1.000000     C
    C   1.0     0.332567     0.728475     0.105719  Biso 1.000000     C
    C   1.0     0.833013     0.729520     0.105639  Biso 1.000000     C
    C   1.0     0.354633     0.399535     0.710609  Biso 1.000000     C
    C   1.0     0.854801     0.399447     0.710785  Biso 1.000000     C
    C   1.0     0.367022     0.439239     0.841927  Biso 1.000000     C
    C   1.0     0.867155     0.439242     0.842079  Biso 1.000000     C
    C   1.0     0.341482     0.315184     0.919758  Biso 1.000000     C
    C   1.0     0.841487     0.315279     0.919985  Biso 1.000000     C
    C   1.0     0.308894     0.197169     0.833954  Biso 1.000000     C
    C   1.0     0.808886     0.197188     0.834254  Biso 1.000000     C
    C   1.0     0.318498     0.249180     0.704757  Biso 1.000000     C
    C   1.0     0.818556     0.249085     0.705026  Biso 1.000000     C
    C   1.0     0.344897     0.356308     0.759546  Biso 1.000000     C
    C   1.0     0.845011     0.356254     0.759743  Biso 1.000000     C
    C   1.0     0.351442     0.374826     0.821009  Biso 1.000000     C
    C   1.0     0.851540     0.374820     0.821196  Biso 1.000000     C
    C   1.0     0.339732     0.317083     0.856655  Biso 1.000000     C
    C   1.0     0.839774     0.317110     0.856880  Biso 1.000000     C
    C   1.0     0.325798     0.262845     0.817151  Biso 1.000000     C
    C   1.0     0.825825     0.262845     0.817411  Biso 1.000000     C
    C   1.0     0.328988     0.287122     0.757074  Biso 1.000000     C
    C   1.0     0.829058     0.287071     0.757316  Biso 1.000000     C
    C   1.0     0.028615     0.420569     0.723324  Biso 1.000000     C
    C   1.0     0.528437     0.420602     0.723729  Biso 1.000000     C
    C   1.0     0.042573     0.481618     0.849268  Biso 1.000000     C
    C   1.0     0.542450     0.481427     0.849755  Biso 1.000000     C
    C   1.0     0.019918     0.369291     0.942172  Biso 1.000000     C
    C   1.0     0.519793     0.368959     0.942499  Biso 1.000000     C
    C   1.0     0.486118     0.240180     0.872571  Biso 1.000000     C
    C   1.0     0.986150     0.240434     0.872425  Biso 1.000000     C
    C   1.0    -0.008032     0.271888     0.737778  Biso 1.000000     C
    C   1.0     0.491887     0.271877     0.737975  Biso 1.000000     C
    C   1.0     0.021221     0.386367     0.777994  Biso 1.000000     C
    C   1.0     0.521091     0.386298     0.778350  Biso 1.000000     C
    C   1.0     0.028079     0.414524     0.836453  Biso 1.000000     C
    C   1.0     0.527952     0.414354     0.836849  Biso 1.000000     C
    C   1.0     0.016493     0.362886     0.879294  Biso 1.000000     C
    C   1.0     0.516388     0.362639     0.879615  Biso 1.000000     C
    C   1.0     0.002107     0.303015     0.847201  Biso 1.000000     C
    C   1.0     0.502028     0.302817     0.847440  Biso 1.000000     C
    C   1.0     0.004993     0.317484     0.784621  Biso 1.000000     C
    C   1.0     0.504896     0.317398     0.784881  Biso 1.000000     C
    C   1.0     0.326826     0.477798     0.413010  Biso 1.000000     C
    C   1.0     0.826892     0.478140     0.412987  Biso 1.000000     C
    C   1.0     0.410622     0.744064     0.716561  Biso 1.000000     C
    C   1.0     0.910567     0.743939     0.716535  Biso 1.000000     C
    C   1.0     0.436814     0.894312     0.725146  Biso 1.000000     C
    C   1.0     0.936706     0.894168     0.725238  Biso 1.000000     C
    C   1.0     0.448963     0.949469     0.597351  Biso 1.000000     C
    C   1.0     0.948900     0.949444     0.597468  Biso 1.000000     C
    C   1.0     0.431591     0.832963     0.508539  Biso 1.000000     C
    C   1.0     0.931587     0.833026     0.508581  Biso 1.000000     C
    C   1.0     0.407158     0.706146     0.582289  Biso 1.000000     C
    C   1.0     0.907157     0.706132     0.582233  Biso 1.000000     C
    C   1.0     0.418087     0.787660     0.667673  Biso 1.000000     C
    C   1.0     0.918035     0.787573     0.667677  Biso 1.000000     C
    C   1.0     0.430941     0.857158     0.671795  Biso 1.000000     C
    C   1.0     0.930872     0.857069     0.671853  Biso 1.000000     C
    C   1.0     0.437341     0.882655     0.612374  Biso 1.000000     C
    C   1.0     0.937288     0.882619     0.612453  Biso 1.000000     C
    C   1.0     0.428542     0.828908     0.571484  Biso 1.000000     C
    C   1.0     0.928513     0.828907     0.571521  Biso 1.000000     C
    C   1.0     0.416647     0.770171     0.605656  Biso 1.000000     C
    C   1.0     0.916620     0.770138     0.605648  Biso 1.000000     C
    N   1.0     0.114697     0.936307     0.829775  Biso 1.000000     N
    N   1.0     0.614240     0.935983     0.830062  Biso 1.000000     N
    N   1.0     0.130332     0.993952     0.642674  Biso 1.000000     N
    N   1.0     0.630234     0.994003     0.642976  Biso 1.000000     N
    N   1.0     0.093097     0.816133     0.527573  Biso 1.000000     N
    N   1.0     0.593198     0.816376     0.527622  Biso 1.000000     N
    N   1.0     0.042846     0.643186     0.651676  Biso 1.000000     N
    N   1.0     0.542984     0.643186     0.651456  Biso 1.000000     N
    N   1.0     0.059475     0.716985     0.838172  Biso 1.000000     N
    N   1.0     0.559453     0.716676     0.838071  Biso 1.000000     N
    N   1.0     0.284362     0.948988     0.822218  Biso 1.000000     N
    N   1.0     0.784003     0.949312     0.821955  Biso 1.000000     N
    N   1.0     0.304322     0.037911     0.640137  Biso 1.000000     N
    N   1.0     0.804143     0.037803     0.639814  Biso 1.000000     N
    N   1.0     0.273398     0.874123     0.505088  Biso 1.000000     N
    N   1.0     0.773302     0.873902     0.505001  Biso 1.000000     N
    N   1.0     0.221630     0.688427     0.606671  Biso 1.000000     N
    N   1.0     0.721651     0.688229     0.606840  Biso 1.000000     N
    N   1.0     0.229729     0.734196     0.800504  Biso 1.000000     N
    N   1.0     0.729693     0.734321     0.800586  Biso 1.000000     N
    N   1.0     0.111606     0.984359     0.028466  Biso 1.000000     N
    N   1.0     0.611629     0.984363     0.028495  Biso 1.000000     N
    N   1.0     0.155872     0.208436     0.742132  Biso 1.000000     N
    N   1.0     0.655857     0.208317     0.742335  Biso 1.000000     N
    N   1.0     0.191928     0.426085     0.730647  Biso 1.000000     N
    N   1.0     0.691908     0.425854     0.730636  Biso 1.000000     N
    N   1.0     0.207666     0.505939     0.914273  Biso 1.000000     N
    N   1.0     0.707877     0.505971     0.914186  Biso 1.000000     N
    N   1.0     0.184685     0.336437     0.043916  Biso 1.000000     N
    N   1.0     0.684727     0.336769     0.044018  Biso 1.000000     N
    N   1.0     0.151207     0.153149     0.936604  Biso 1.000000     N
    N   1.0     0.651042     0.153230     0.936920  Biso 1.000000     N
    N   1.0     0.135401     0.563533     0.328818  Biso 1.000000     N
    N   1.0     0.635262     0.563830     0.328916  Biso 1.000000     N
    N   1.0     0.119898     0.506704     0.141451  Biso 1.000000     N
    N   1.0     0.619718     0.506833     0.141678  Biso 1.000000     N
    N   1.0     0.156806     0.684956     0.027261  Biso 1.000000     N
    N   1.0     0.656904     0.684923     0.027281  Biso 1.000000     N
    N   1.0     0.206737     0.857512     0.152299  Biso 1.000000     N
    N   1.0     0.707044     0.857588     0.152128  Biso 1.000000     N
    N   1.0     0.189958     0.782937     0.338393  Biso 1.000000     N
    N   1.0     0.690252     0.783294     0.338285  Biso 1.000000     N
    N   1.0     0.465791     0.550911     0.321951  Biso 1.000000     N
    N   1.0     0.965895     0.551060     0.321961  Biso 1.000000     N
    N   1.0     0.445729     0.462522     0.139798  Biso 1.000000     N
    N   1.0     0.945943     0.462430     0.139833  Biso 1.000000     N
    N   1.0     0.476553     0.626493     0.000000  Biso 1.000000     N
    N   1.0     0.976669     0.626264     0.000000  Biso 1.000000     N
    N   1.0     0.028114     0.811984     0.107043  Biso 1.000000     N
    N   1.0     0.528325     0.812077     0.107313  Biso 1.000000     N
    N   1.0     0.019889     0.766162     0.300776  Biso 1.000000     N
    N   1.0     0.520012     0.766074     0.300959  Biso 1.000000     N
    N   1.0     0.138310     0.516746     0.528460  Biso 1.000000     N
    N   1.0     0.638256     0.516675     0.528469  Biso 1.000000     N
    N   1.0     0.094598     0.292244     0.242271  Biso 1.000000     N
    N   1.0     0.594642     0.292177     0.242395  Biso 1.000000     N
    N   1.0     0.058633     0.074803     0.230225  Biso 1.000000     N
    N   1.0     0.558573     0.074680     0.230431  Biso 1.000000     N
    N   1.0     0.042369     0.994641     0.413720  Biso 1.000000     N
    N   1.0     0.542254     0.994632     0.413920  Biso 1.000000     N
    N   1.0     0.065642     0.163668     0.543744  Biso 1.000000     N
    N   1.0     0.565698     0.163735     0.543899  Biso 1.000000     N
    N   1.0     0.099706     0.347386     0.436959  Biso 1.000000     N
    N   1.0     0.599819     0.347376     0.437050  Biso 1.000000     N
    N   1.0     0.386048     0.064075     0.169535  Biso 1.000000     N
    N   1.0     0.885925     0.064106     0.170016  Biso 1.000000     N
    N   1.0     0.369764     0.005805     0.356657  Biso 1.000000     N
    N   1.0     0.869948     0.006433     0.357193  Biso 1.000000     N
    N   1.0     0.406776     0.183352     0.472149  Biso 1.000000     N
    N   1.0     0.906925     0.184209     0.472270  Biso 1.000000     N
    N   1.0     0.457171     0.356613     0.348482  Biso 1.000000     N
    N   1.0     0.957152     0.357227     0.348196  Biso 1.000000     N
    N   1.0     0.440918     0.283252     0.161779  Biso 1.000000     N
    N   1.0     0.940789     0.283375     0.161662  Biso 1.000000     N
    N   1.0     0.216327     0.050510     0.177837  Biso 1.000000     N
    N   1.0     0.716203     0.051113     0.177810  Biso 1.000000     N
    N   1.0     0.195912     0.962057     0.359957  Biso 1.000000     N
    N   1.0     0.695927     0.962520     0.359917  Biso 1.000000     N
    N   1.0     0.226637     0.126043     0.494784  Biso 1.000000     N
    N   1.0     0.726761     0.126358     0.494806  Biso 1.000000     N
    N   1.0     0.278317     0.311635     0.392974  Biso 1.000000     N
    N   1.0     0.778538     0.312065     0.393044  Biso 1.000000     N
    N   1.0     0.270502     0.265480     0.199170  Biso 1.000000     N
    N   1.0     0.770484     0.266061     0.199276  Biso 1.000000     N
    N   1.0     0.389103     0.014499     0.971599  Biso 1.000000     N
    N   1.0     0.888571     0.015678     0.971524  Biso 1.000000     N
    N   1.0     0.343707     0.790506     0.257682  Biso 1.000000     N
    N   1.0     0.844184     0.791829     0.257565  Biso 1.000000     N
    N   1.0     0.307845     0.572686     0.268877  Biso 1.000000     N
    N   1.0     0.808057     0.574295     0.269234  Biso 1.000000     N
    N   1.0     0.292017     0.493236     0.085058  Biso 1.000000     N
    N   1.0     0.792212     0.494191     0.085707  Biso 1.000000     N
    N   1.0     0.315163     0.662915     0.955767  Biso 1.000000     N
    N   1.0     0.815504     0.663417     0.955859  Biso 1.000000     N
    N   1.0     0.348478     0.846003     0.063316  Biso 1.000000     N
    N   1.0     0.849129     0.846937     0.062977  Biso 1.000000     N
    N   1.0     0.364517     0.436597     0.670854  Biso 1.000000     N
    N   1.0     0.864732     0.436492     0.671024  Biso 1.000000     N
    N   1.0     0.380176     0.493370     0.858147  Biso 1.000000     N
    N   1.0     0.880338     0.493377     0.858275  Biso 1.000000     N
    N   1.0     0.343249     0.315028     0.972364  Biso 1.000000     N
    N   1.0     0.843218     0.315203     0.972594  Biso 1.000000     N
    N   1.0     0.293104     0.142598     0.847394  Biso 1.000000     N
    N   1.0     0.793070     0.142630     0.847723  Biso 1.000000     N
    N   1.0     0.309840     0.217157     0.661243  Biso 1.000000     N
    N   1.0     0.809884     0.217021     0.661539  Biso 1.000000     N
    N   1.0     0.034223     0.448972     0.677673  Biso 1.000000     N
    N   1.0     0.534000     0.449095     0.678121  Biso 1.000000     N
    N   1.0     0.054208     0.537702     0.859677  Biso 1.000000     N
    N   1.0     0.554107     0.537494     0.860233  Biso 1.000000     N
    N   1.0     0.023557     0.373923    -0.005408  Biso 1.000000     N
    N   1.0     0.523409     0.373544    -0.005076  Biso 1.000000     N
    N   1.0     0.471966     0.187884     0.892824  Biso 1.000000     N
    N   1.0     0.971929     0.188189     0.892758  Biso 1.000000     N
    N   1.0     0.479994     0.233934     0.699097  Biso 1.000000     N
    N   1.0     0.980070     0.233883     0.698953  Biso 1.000000     N
    N   1.0     0.361745     0.483256     0.471500  Biso 1.000000     N
    N   1.0     0.861772     0.483363     0.471500  Biso 1.000000     N
    N   1.0     0.405594     0.708035     0.757565  Biso 1.000000     N
    N   1.0     0.905541     0.707889     0.757523  Biso 1.000000     N
    N   1.0     0.441807     0.925515     0.769398  Biso 1.000000     N
    N   1.0     0.941660     0.925318     0.769523  Biso 1.000000     N
    N   1.0     0.457854     0.005473     0.585898  Biso 1.000000     N
    N   1.0     0.957782     0.005451     0.586026  Biso 1.000000     N
    N   1.0     0.434287     0.836295     0.455971  Biso 1.000000     N
    N   1.0     0.934306     0.836424     0.456017  Biso 1.000000     N
    N   1.0     0.400236     0.652711     0.562915  Biso 1.000000     N
    N   1.0     0.900255     0.652712     0.562823  Biso 1.000000     N
    O   1.0     0.171227    -0.019166     0.028916  Biso 1.000000     O
    O   1.0     0.671245    -0.019166     0.028924  Biso 1.000000     O
    O   1.0     0.080673     0.991573     0.981886  Biso 1.000000     O
    O   1.0     0.580689     0.991590     0.981917  Biso 1.000000     O
    O   1.0     0.078535     0.519198     0.528958  Biso 1.000000     O
    O   1.0     0.578483     0.519151     0.528932  Biso 1.000000     O
    O   1.0     0.169428     0.511077     0.481750  Biso 1.000000     O
    O   1.0     0.669413     0.511082     0.481771  Biso 1.000000     O
    O   1.0     0.329703     0.000000     0.971014  Biso 1.000000     O
    O   1.0     0.828954     0.000000     0.971016  Biso 1.000000     O
    O   1.0     0.419499     0.005686     0.018166  Biso 1.000000     O
    O   1.0     0.919417     0.008399     0.018144  Biso 1.000000     O
    O   1.0     0.421525     0.480821     0.471035  Biso 1.000000     O
    O   1.0     0.921541     0.480854     0.471045  Biso 1.000000     O
    O   1.0     0.330591     0.488906     0.518192  Biso 1.000000     O
    O   1.0     0.830599     0.488909     0.518197  Biso 1.000000     O
   Rb   1.0     0.169504     0.642883     0.898184  Biso 1.000000    Rb
   Rb   1.0     0.669570     0.642871     0.898237  Biso 1.000000    Rb
   Rb   1.0     0.206930     0.028874     0.901998  Biso 1.000000    Rb
   Rb   1.0     0.706459     0.028903     0.901884  Biso 1.000000    Rb
   Rb   1.0     0.182030     0.134313     0.624709  Biso 1.000000    Rb
   Rb   1.0     0.682078     0.134314     0.624794  Biso 1.000000    Rb
   Rb   1.0     0.080296     0.857479     0.398443  Biso 1.000000    Rb
   Rb   1.0     0.580464     0.857612     0.398456  Biso 1.000000    Rb
   Rb   1.0     0.043831     0.471509     0.401697  Biso 1.000000    Rb
   Rb   1.0     0.543783     0.471378     0.401634  Biso 1.000000    Rb
   Rb   1.0     0.068342     0.366098     0.124587  Biso 1.000000    Rb
   Rb   1.0     0.568349     0.366189     0.124833  Biso 1.000000    Rb
   Rb   1.0     0.330720     0.356708     0.101487  Biso 1.000000    Rb
   Rb   1.0     0.830614     0.357318     0.101594  Biso 1.000000    Rb
   Rb   1.0     0.293774     0.970761     0.097986  Biso 1.000000    Rb
   Rb   1.0     0.793764     0.971270     0.098090  Biso 1.000000    Rb
   Rb   1.0     0.317901     0.865468     0.375022  Biso 1.000000    Rb
   Rb   1.0     0.818066     0.866041     0.375046  Biso 1.000000    Rb
   Rb   1.0     0.419699     0.142540     0.601433  Biso 1.000000    Rb
   Rb   1.0     0.919655     0.142564     0.601340  Biso 1.000000    Rb
   Rb   1.0     0.456251     0.528694     0.598241  Biso 1.000000    Rb
   Rb   1.0     0.956250     0.528704     0.598238  Biso 1.000000    Rb
   Rb   1.0     0.431852     0.633948     0.875131  Biso 1.000000    Rb
   Rb   1.0     0.931956     0.634002     0.875096  Biso 1.000000    Rb
