#======================================================================

# CRYSTAL DATA

#----------------------------------------------------------------------

data_VESTA_phase_1


_pd_phase_name                         MOF
_cell_length_a                         15.44000
_cell_length_b                         17.79000
_cell_length_c                         18.31800
_cell_angle_alpha                      112.23200
_cell_angle_beta                       90.00400
_cell_angle_gamma                      89.99600
_symmetry_space_group_name_H-M         "P 1"
_symmetry_Int_Tables_number            1

loop_
_symmetry_equiv_pos_as_xyz
   "x, y, z"

loop_
   _atom_site_label
   _atom_site_occupancy
   _atom_site_fract_x
   _atom_site_fract_y
   _atom_site_fract_z
   _atom_site_adp_type
   _atom_site_B_iso_or_equiv
   _atom_site_type_symbol
    H   1.0     0.501320     0.396913     0.697367  Biso 1.000000     H
    H   1.0     0.501511     0.606141     0.972687  Biso 1.000000     H
    H   1.0     0.994269     0.106884     0.137006  Biso 1.000000     H
    H   1.0     0.832108     0.162639     0.806266  Biso 1.000000     H
    H   1.0     0.747356     0.282865     0.892670  Biso 1.000000     H
    H   1.0     0.621880     0.295595     0.688115  Biso 1.000000     H
    H   1.0     0.709907     0.177912     0.601566  Biso 1.000000     H
    H   1.0     0.105488     0.773281     0.872074  Biso 1.000000     H
    H   1.0     0.203183     0.664771     0.783544  Biso 1.000000     H
    H   1.0     0.397929     0.732571     0.964392  Biso 1.000000     H
    H   1.0     0.300270     0.841302     0.052892  Biso 1.000000     H
    H   1.0     0.678367     0.660852     0.974214  Biso 1.000000     H
    H   1.0     0.754102     0.787088     0.061087  Biso 1.000000     H
    H   1.0     0.820926     0.840749     0.858131  Biso 1.000000     H
    H   1.0     0.744361     0.715137     0.771269  Biso 1.000000     H
    H   1.0     0.000000     0.103084     0.802662  Biso 1.000000     H
    H   1.0     0.000000     0.893868     0.527341  Biso 1.000000     H
    H   1.0     0.494288     0.393105     0.362989  Biso 1.000000     H
    H   1.0     0.332084     0.337333     0.693749  Biso 1.000000     H
    H   1.0     0.247360     0.217086     0.607351  Biso 1.000000     H
    H   1.0     0.121904     0.204380     0.811911  Biso 1.000000     H
    H   1.0     0.209907     0.322081     0.898453  Biso 1.000000     H
    H   1.0     0.605587     0.726722     0.627966  Biso 1.000000     H
    H   1.0     0.703313     0.835213     0.716475  Biso 1.000000     H
    H   1.0     0.898044     0.767308     0.535628  Biso 1.000000     H
    H   1.0     0.800341     0.658599     0.447131  Biso 1.000000     H
    H   1.0     0.178354     0.839183     0.525806  Biso 1.000000     H
    H   1.0     0.254085     0.712946     0.438907  Biso 1.000000     H
    H   1.0     0.320909     0.659231     0.641851  Biso 1.000000     H
    H   1.0     0.244342     0.784836     0.728727  Biso 1.000000     H
    H   1.0     0.498685     0.603091     0.302650  Biso 1.000000     H
    H   1.0     0.498501     0.393858     0.027333  Biso 1.000000     H
    H   1.0     0.005727     0.893121     0.863002  Biso 1.000000     H
    H   1.0     0.167897     0.837360     0.193740  Biso 1.000000     H
    H   1.0     0.252639     0.717125     0.107337  Biso 1.000000     H
    H   1.0     0.378118     0.704397     0.311891  Biso 1.000000     H
    H   1.0     0.290097     0.822085     0.398440  Biso 1.000000     H
    H   1.0     0.894507     0.226712     0.127944  Biso 1.000000     H
    H   1.0     0.796808     0.335217     0.216474  Biso 1.000000     H
    H   1.0     0.602067     0.267420     0.035622  Biso 1.000000     H
    H   1.0     0.699731     0.158694     0.947121  Biso 1.000000     H
    H   1.0     0.321640     0.339153     0.025790  Biso 1.000000     H
    H   1.0     0.245904     0.212919     0.938915  Biso 1.000000     H
    H   1.0     0.179075     0.159255     0.141868  Biso 1.000000     H
    H   1.0     0.255641     0.284863     0.228732  Biso 1.000000     H
    H   1.0    -0.001302     0.896920     0.197345  Biso 1.000000     H
    H   1.0    -0.001508     0.106130     0.472673  Biso 1.000000     H
    H   1.0     0.505738     0.606892     0.637013  Biso 1.000000     H
    H   1.0     0.667929     0.662671     0.306259  Biso 1.000000     H
    H   1.0     0.752662     0.782911     0.392655  Biso 1.000000     H
    H   1.0     0.878107     0.795623     0.188094  Biso 1.000000     H
    H   1.0     0.790097     0.677927     0.101552  Biso 1.000000     H
    H   1.0     0.394407     0.273292     0.372046  Biso 1.000000     H
    H   1.0     0.296678     0.164802     0.283539  Biso 1.000000     H
    H   1.0     0.101952     0.232710     0.464391  Biso 1.000000     H
    H   1.0     0.199658     0.341418     0.552885  Biso 1.000000     H
    H   1.0     0.821657     0.160810     0.474201  Biso 1.000000     H
    H   1.0     0.745926     0.287047     0.561098  Biso 1.000000     H
    H   1.0     0.679089     0.340751     0.358150  Biso 1.000000     H
    H   1.0     0.755654     0.215143     0.271275  Biso 1.000000     H
    C   1.0     0.833647     0.095582     0.646915  Biso 1.000000     C
    C   1.0     0.777770     0.164007     0.698390  Biso 1.000000     C
    C   1.0     0.786969     0.192805     0.780662  Biso 1.000000     C
    C   1.0     0.739099     0.259301     0.828921  Biso 1.000000     C
    C   1.0     0.679386     0.296874     0.795825  Biso 1.000000     C
    C   1.0     0.628442     0.369199     0.847423  Biso 1.000000     C
    C   1.0     0.668313     0.266511     0.713696  Biso 1.000000     C
    C   1.0     0.717541     0.201114     0.665347  Biso 1.000000     C
    C   1.0     0.138272     0.879373     0.020211  Biso 1.000000     C
    C   1.0     0.196905     0.814034     0.967807  Biso 1.000000     C
    C   1.0     0.169789     0.764209     0.891729  Biso 1.000000     C
    C   1.0     0.224028     0.703822     0.842510  Biso 1.000000     C
    C   1.0     0.306595     0.692069     0.868579  Biso 1.000000     C
    C   1.0     0.364956     0.626530     0.815971  Biso 1.000000     C
    C   1.0     0.333690     0.741809     0.944699  Biso 1.000000     C
    C   1.0     0.279486     0.802312     0.993892  Biso 1.000000     C
    C   1.0     0.658896     0.606270     0.815751  Biso 1.000000     C
    C   1.0     0.706426     0.680577     0.867403  Biso 1.000000     C
    C   1.0     0.709223     0.700665     0.949171  Biso 1.000000     C
    C   1.0     0.751934     0.770527     0.997555  Biso 1.000000     C
    C   1.0     0.793036     0.820931     0.964945  Biso 1.000000     C
    C   1.0     0.841224     0.894605     0.016939  Biso 1.000000     C
    C   1.0     0.790014     0.800995     0.883204  Biso 1.000000     C
    C   1.0     0.747050     0.731236     0.834771  Biso 1.000000     C
    C   1.0     0.333627     0.404407     0.853100  Biso 1.000000     C
    C   1.0     0.277760     0.335975     0.801627  Biso 1.000000     C
    C   1.0     0.286958     0.307165     0.719355  Biso 1.000000     C
    C   1.0     0.239103     0.240657     0.671100  Biso 1.000000     C
    C   1.0     0.179405     0.203085     0.704199  Biso 1.000000     C
    C   1.0     0.128469     0.130752     0.652606  Biso 1.000000     C
    C   1.0     0.168329     0.233462     0.786327  Biso 1.000000     C
    C   1.0     0.217543     0.298869     0.834673  Biso 1.000000     C
    C   1.0     0.638314     0.620623     0.479807  Biso 1.000000     C
    C   1.0     0.696986     0.685931     0.532228  Biso 1.000000     C
    C   1.0     0.669889     0.735769     0.608304  Biso 1.000000     C
    C   1.0     0.724144     0.796144     0.657513  Biso 1.000000     C
    C   1.0     0.806710     0.807871     0.631437  Biso 1.000000     C
    C   1.0     0.865047     0.873439     0.684032  Biso 1.000000     C
    C   1.0     0.833799     0.758102     0.555324  Biso 1.000000     C
    C   1.0     0.779576     0.697612     0.506141  Biso 1.000000     C
    C   1.0     0.158880     0.893737     0.684265  Biso 1.000000     C
    C   1.0     0.206410     0.819429     0.632606  Biso 1.000000     C
    C   1.0     0.209210     0.799359     0.550841  Biso 1.000000     C
    C   1.0     0.251923     0.729499     0.502450  Biso 1.000000     C
    C   1.0     0.293024     0.679079     0.535048  Biso 1.000000     C
    C   1.0     0.341202     0.605399     0.483036  Biso 1.000000     C
    C   1.0     0.290000     0.698998     0.616786  Biso 1.000000     C
    C   1.0     0.247034     0.768754     0.665228  Biso 1.000000     C
    C   1.0     0.166364     0.904419     0.353093  Biso 1.000000     C
    C   1.0     0.222235     0.835991     0.301616  Biso 1.000000     C
    C   1.0     0.213034     0.807191     0.219344  Biso 1.000000     C
    C   1.0     0.260898     0.740690     0.171086  Biso 1.000000     C
    C   1.0     0.320610     0.703118     0.204182  Biso 1.000000     C
    C   1.0     0.371555     0.630792     0.152587  Biso 1.000000     C
    C   1.0     0.331686     0.733482     0.286311  Biso 1.000000     C
    C   1.0     0.282462     0.798882     0.334659  Biso 1.000000     C
    C   1.0     0.861736     0.120635     0.979800  Biso 1.000000     C
    C   1.0     0.803095     0.185963     0.032208  Biso 1.000000     C
    C   1.0     0.830206     0.235783     0.108288  Biso 1.000000     C
    C   1.0     0.775966     0.296168     0.157508  Biso 1.000000     C
    C   1.0     0.693400     0.307922     0.131437  Biso 1.000000     C
    C   1.0     0.635044     0.373467     0.184043  Biso 1.000000     C
    C   1.0     0.666306     0.258183     0.055315  Biso 1.000000     C
    C   1.0     0.720513     0.197682     0.006123  Biso 1.000000     C
    C   1.0     0.341114     0.393730     0.184256  Biso 1.000000     C
    C   1.0     0.293580     0.319426     0.132600  Biso 1.000000     C
    C   1.0     0.290783     0.299340     0.050833  Biso 1.000000     C
    C   1.0     0.248071     0.229478     0.002447  Biso 1.000000     C
    C   1.0     0.206969     0.179072     0.035055  Biso 1.000000     C
    C   1.0     0.158788     0.105394     0.983060  Biso 1.000000     C
    C   1.0     0.209988     0.199008     0.116796  Biso 1.000000     C
    C   1.0     0.252953     0.268766     0.165231  Biso 1.000000     C
    C   1.0     0.666382     0.595596     0.146908  Biso 1.000000     C
    C   1.0     0.722249     0.664030     0.198379  Biso 1.000000     C
    C   1.0     0.713056     0.692837     0.280652  Biso 1.000000     C
    C   1.0     0.760915     0.759342     0.328906  Biso 1.000000     C
    C   1.0     0.820615     0.796913     0.295808  Biso 1.000000     C
    C   1.0     0.871556     0.869241     0.347403  Biso 1.000000     C
    C   1.0     0.831683     0.766541     0.213678  Biso 1.000000     C
    C   1.0     0.782465     0.701136     0.165333  Biso 1.000000     C
    C   1.0     0.361690     0.379386     0.520206  Biso 1.000000     C
    C   1.0     0.303012     0.314083     0.467786  Biso 1.000000     C
    C   1.0     0.330106     0.264245     0.391709  Biso 1.000000     C
    C   1.0     0.275850     0.203871     0.342502  Biso 1.000000     C
    C   1.0     0.193284     0.192144     0.368580  Biso 1.000000     C
    C   1.0     0.134950     0.126575     0.315983  Biso 1.000000     C
    C   1.0     0.166197     0.241914     0.444692  Biso 1.000000     C
    C   1.0     0.220422     0.302404     0.493875  Biso 1.000000     C
    C   1.0     0.841130     0.106254     0.315743  Biso 1.000000     C
    C   1.0     0.793594     0.180558     0.367399  Biso 1.000000     C
    C   1.0     0.790797     0.200631     0.449164  Biso 1.000000     C
    C   1.0     0.748085     0.270491     0.497555  Biso 1.000000     C
    C   1.0     0.706982     0.320908     0.464955  Biso 1.000000     C
    C   1.0     0.658806     0.394589     0.516967  Biso 1.000000     C
    C   1.0     0.710000     0.300986     0.383216  Biso 1.000000     C
    C   1.0     0.752965     0.231229     0.334775  Biso 1.000000     C
    O   1.0     0.500625     0.455491     0.711165  Biso 1.000000     O
    O   1.0     0.500011     0.547258     0.956475  Biso 1.000000     O
    O   1.0     0.996932     0.048189     0.121983  Biso 1.000000     O
    O   1.0     0.337484     0.589028     0.744763  Biso 1.000000     O
    O   1.0     0.166483     0.918920     0.090761  Biso 1.000000     O
    O   1.0     0.832671     0.082241     0.572370  Biso 1.000000     O
    O   1.0     0.562749     0.390614     0.818891  Biso 1.000000     O
    O   1.0     0.435852     0.612715     0.843187  Biso 1.000000     O
    O   1.0     0.878334     0.938884     0.986471  Biso 1.000000     O
    O   1.0     0.656342     0.404188     0.918789  Biso 1.000000     O
    O   1.0     0.066147     0.891255     0.993584  Biso 1.000000     O
    O   1.0     0.877526     0.056343     0.678578  Biso 1.000000     O
    O   1.0     0.622021     0.562374     0.846869  Biso 1.000000     O
    O   1.0     0.840922     0.907465     0.091303  Biso 1.000000     O
    O   1.0     0.659495     0.592478     0.741267  Biso 1.000000     O
    O   1.0     0.000000     0.044504     0.788855  Biso 1.000000     O
    O   1.0     0.000000     0.952751     0.543539  Biso 1.000000     O
    O   1.0     0.496930     0.451801     0.378019  Biso 1.000000     O
    O   1.0     0.837552     0.910958     0.755229  Biso 1.000000     O
    O   1.0     0.666501     0.581098     0.409247  Biso 1.000000     O
    O   1.0     0.332647     0.417758     0.927648  Biso 1.000000     O
    O   1.0     0.062738     0.109386     0.681120  Biso 1.000000     O
    O   1.0     0.935928     0.887276     0.656817  Biso 1.000000     O
    O   1.0     0.378324     0.561115     0.513509  Biso 1.000000     O
    O   1.0     0.156414     0.095709     0.581264  Biso 1.000000     O
    O   1.0     0.566194     0.608761     0.506444  Biso 1.000000     O
    O   1.0     0.377503     0.443641     0.821438  Biso 1.000000     O
    O   1.0     0.122019     0.937655     0.653157  Biso 1.000000     O
    O   1.0     0.340906     0.592552     0.408674  Biso 1.000000     O
    O   1.0     0.159476     0.907513     0.758746  Biso 1.000000     O
    O   1.0     0.499385     0.544512     0.288847  Biso 1.000000     O
    O   1.0     0.499998     0.452741     0.043540  Biso 1.000000     O
    O   1.0     0.003075     0.951816     0.878025  Biso 1.000000     O
    O   1.0     0.662519     0.410969     0.255250  Biso 1.000000     O
    O   1.0     0.833531     0.081098     0.909246  Biso 1.000000     O
    O   1.0     0.167340     0.917753     0.427637  Biso 1.000000     O
    O   1.0     0.437264     0.609396     0.181115  Biso 1.000000     O
    O   1.0     0.564151     0.387288     0.156827  Biso 1.000000     O
    O   1.0     0.121678     0.061115     0.013528  Biso 1.000000     O
    O   1.0     0.343642     0.595784     0.081228  Biso 1.000000     O
    O   1.0     0.933861     0.108752     0.006427  Biso 1.000000     O
    O   1.0     0.122490     0.943666     0.321435  Biso 1.000000     O
    O   1.0     0.377983     0.437636     0.153145  Biso 1.000000     O
    O   1.0     0.159093     0.092530     0.908695  Biso 1.000000     O
    O   1.0     0.340523     0.407509     0.258737  Biso 1.000000     O
    O   1.0    -0.000623     0.955500     0.211152  Biso 1.000000     O
    O   1.0    -0.000006     0.047247     0.456475  Biso 1.000000     O
    O   1.0     0.503087     0.548196     0.621990  Biso 1.000000     O
    O   1.0     0.162450     0.089057     0.244788  Biso 1.000000     O
    O   1.0     0.333506     0.418917     0.590765  Biso 1.000000     O
    O   1.0     0.667360     0.582239     0.072358  Biso 1.000000     O
    O   1.0     0.937274     0.890622     0.318885  Biso 1.000000     O
    O   1.0     0.064070     0.112735     0.343197  Biso 1.000000     O
    O   1.0     0.621683     0.438871     0.486494  Biso 1.000000     O
    O   1.0     0.843626     0.904267     0.418753  Biso 1.000000     O
    O   1.0     0.433816     0.391236     0.493569  Biso 1.000000     O
    O   1.0     0.622505     0.556368     0.178575  Biso 1.000000     O
    O   1.0     0.877999     0.062346     0.346857  Biso 1.000000     O
    O   1.0     0.659102     0.407435     0.591328  Biso 1.000000     O
    O   1.0     0.840529     0.092469     0.241260  Biso 1.000000     O
   Zn   1.0     0.500029     0.502659     0.834021  Biso 1.000000    Zn
   Zn   1.0     0.096647     0.002946     0.166802  Biso 1.000000    Zn
   Zn   1.0     0.599077     0.496770     0.996591  Biso 1.000000    Zn
   Zn   1.0     0.900089     0.000000     0.166286  Biso 1.000000    Zn
   Zn   1.0     0.000000     0.997364     0.665998  Biso 1.000000    Zn
   Zn   1.0     0.596656     0.497057     0.333208  Biso 1.000000    Zn
   Zn   1.0     0.099078     0.003198     0.503437  Biso 1.000000    Zn
   Zn   1.0     0.400080     0.499942     0.333710  Biso 1.000000    Zn
   Zn   1.0     0.499981     0.497349     0.165994  Biso 1.000000    Zn
   Zn   1.0     0.903366     0.997069     0.833206  Biso 1.000000    Zn
   Zn   1.0     0.400930     0.503222     0.003422  Biso 1.000000    Zn
   Zn   1.0     0.099924    -0.000073     0.833718  Biso 1.000000    Zn
   Zn   1.0    -0.000031     0.002639     0.334013  Biso 1.000000    Zn
   Zn   1.0     0.403357     0.502952     0.666803  Biso 1.000000    Zn
   Zn   1.0     0.900940     0.996797     0.496576  Biso 1.000000    Zn
   Zn   1.0     0.599933     0.500047     0.666297  Biso 1.000000    Zn
   Zn   1.0    -0.000001    -0.000012    -0.000002  Biso 1.000000    Zn
   Zn   1.0     0.500006     0.499995     0.500005  Biso 1.000000    Zn
