#======================================================================

# CRYSTAL DATA

#----------------------------------------------------------------------

data_VESTA_phase_1


_pd_phase_name                         MOF
_cell_length_a                         15.02500
_cell_length_b                         16.88500
_cell_length_c                         16.79800
_cell_angle_alpha                      101.30100
_cell_angle_beta                       104.30900
_cell_angle_gamma                      99.47400
_symmetry_space_group_name_H-M         "P 1"
_symmetry_Int_Tables_number            1

loop_
_symmetry_equiv_pos_as_xyz
   "x, y, z"

loop_
   _atom_site_label
   _atom_site_occupancy
   _atom_site_fract_x
   _atom_site_fract_y
   _atom_site_fract_z
   _atom_site_adp_type
   _atom_site_B_iso_or_equiv
   _atom_site_type_symbol
    H   1.0     0.187799     0.663411     0.560539  Biso 1.000000     H
    H   1.0     0.687809     0.663415     0.560535  Biso 1.000000     H
    H   1.0     0.239270     0.821315     0.665711  Biso 1.000000     H
    H   1.0     0.739291     0.821317     0.665711  Biso 1.000000     H
    H   1.0     0.366994     0.656833     0.795046  Biso 1.000000     H
    H   1.0     0.866993     0.656823     0.795042  Biso 1.000000     H
    H   1.0     0.319509     0.922364     0.764772  Biso 1.000000     H
    H   1.0     0.819432     0.922350     0.764811  Biso 1.000000     H
    H   1.0     0.407884     0.038490     0.883075  Biso 1.000000     H
    H   1.0     0.907802     0.038477     0.883117  Biso 1.000000     H
    H   1.0     0.018493     0.869370     0.022014  Biso 1.000000     H
    H   1.0     0.518391     0.869368     0.022053  Biso 1.000000     H
    H   1.0     0.427571     0.752773     0.905559  Biso 1.000000     H
    H   1.0     0.927676     0.752774     0.905523  Biso 1.000000     H
    H   1.0     0.105527     0.331969     0.726107  Biso 1.000000     H
    H   1.0     0.605526     0.331967     0.726110  Biso 1.000000     H
    H   1.0     0.080738     0.174256     0.751380  Biso 1.000000     H
    H   1.0     0.580719     0.174257     0.751390  Biso 1.000000     H
    H   1.0     0.286698     0.341806     0.965645  Biso 1.000000     H
    H   1.0     0.786732     0.341793     0.965627  Biso 1.000000     H
    H   1.0     0.307993     0.246047     0.024502  Biso 1.000000     H
    H   1.0     0.807831     0.246055     0.024583  Biso 1.000000     H
    H   1.0     0.339574     0.130719     0.083713  Biso 1.000000     H
    H   1.0     0.839389     0.130730     0.083808  Biso 1.000000     H
    H   1.0     0.133899     0.960128     0.865426  Biso 1.000000     H
    H   1.0     0.634036     0.960101     0.865339  Biso 1.000000     H
    H   1.0     0.103616     0.075068     0.804363  Biso 1.000000     H
    H   1.0     0.603759     0.075040     0.804275  Biso 1.000000     H
    H   1.0     0.505945     0.520492     0.643747  Biso 1.000000     H
    H   1.0     0.000000     0.520484     0.643726  Biso 1.000000     H
    H   1.0     0.127748     0.759096     0.818735  Biso 1.000000     H
    H   1.0     0.627785     0.759118     0.818726  Biso 1.000000     H
    H   1.0     0.442680     0.738444     0.568979  Biso 1.000000     H
    H   1.0     0.942675     0.738444     0.568981  Biso 1.000000     H
    H   1.0     0.419882     0.846668     0.638831  Biso 1.000000     H
    H   1.0     0.919877     0.846671     0.638841  Biso 1.000000     H
    H   1.0    -0.014062     0.941559     0.710639  Biso 1.000000     H
    H   1.0     0.485939     0.941560     0.710624  Biso 1.000000     H
    H   1.0     0.005487     0.239545     0.937289  Biso 1.000000     H
    H   1.0     0.505510     0.239521     0.937265  Biso 1.000000     H
    H   1.0     0.319315     0.256032     0.701785  Biso 1.000000     H
    H   1.0     0.819317     0.256035     0.701788  Biso 1.000000     H
    H   1.0     0.494799     0.476582     0.881989  Biso 1.000000     H
    H   1.0     0.994810     0.476593     0.881972  Biso 1.000000     H
    H   1.0     0.268269     0.053018     0.741444  Biso 1.000000     H
    H   1.0     0.768313     0.053008     0.741422  Biso 1.000000     H
    H   1.0     0.246727     0.147360     0.718838  Biso 1.000000     H
    H   1.0     0.746766     0.147333     0.718775  Biso 1.000000     H
    H   1.0     0.312151     0.336893     0.439554  Biso 1.000000     H
    H   1.0     0.812152     0.336897     0.439551  Biso 1.000000     H
    H   1.0     0.261146     0.178966     0.334358  Biso 1.000000     H
    H   1.0     0.761154     0.178973     0.334362  Biso 1.000000     H
    H   1.0     0.132558     0.343031     0.205047  Biso 1.000000     H
    H   1.0     0.632561     0.343031     0.205042  Biso 1.000000     H
    H   1.0     0.178568     0.077570     0.236424  Biso 1.000000     H
    H   1.0     0.678581     0.077572     0.236418  Biso 1.000000     H
    H   1.0     0.090108     0.961352     0.118211  Biso 1.000000     H
    H   1.0     0.590124     0.961354     0.118200  Biso 1.000000     H
    H   1.0     0.484611     0.130696     0.976897  Biso 1.000000     H
    H   1.0     0.984630     0.130693     0.976889  Biso 1.000000     H
    H   1.0     0.075089     0.247347     0.093544  Biso 1.000000     H
    H   1.0     0.575077     0.247348     0.093549  Biso 1.000000     H
    H   1.0     0.394514     0.668067     0.273717  Biso 1.000000     H
    H   1.0     0.894506     0.668064     0.273725  Biso 1.000000     H
    H   1.0     0.419662     0.825583     0.248005  Biso 1.000000     H
    H   1.0     0.919635     0.825584     0.248023  Biso 1.000000     H
    H   1.0     0.212447     0.658089     0.034559  Biso 1.000000     H
    H   1.0     0.712491     0.658072     0.034540  Biso 1.000000     H
    H   1.0     0.195205     0.753343     0.973544  Biso 1.000000     H
    H   1.0     0.695027     0.753350     0.973629  Biso 1.000000     H
    H   1.0     0.164028     0.868689     0.913934  Biso 1.000000     H
    H   1.0     0.663819     0.868694     0.914037  Biso 1.000000     H
    H   1.0     0.363017     0.040012     0.135831  Biso 1.000000     H
    H   1.0     0.863175     0.039985     0.135743  Biso 1.000000     H
    H   1.0     0.393300     0.925141     0.196908  Biso 1.000000     H
    H   1.0     0.893465     0.925114     0.196818  Biso 1.000000     H
    H   1.0    -0.006587     0.478594     0.355387  Biso 1.000000     H
    H   1.0     0.493423     0.478580     0.355365  Biso 1.000000     H
    H   1.0     0.372322     0.239433     0.181237  Biso 1.000000     H
    H   1.0     0.872352     0.239457     0.181233  Biso 1.000000     H
    H   1.0     0.057189     0.261280     0.431416  Biso 1.000000     H
    H   1.0     0.557167     0.261269     0.431424  Biso 1.000000     H
    H   1.0     0.080144     0.152894     0.362086  Biso 1.000000     H
    H   1.0     0.580085     0.152881     0.362107  Biso 1.000000     H
    H   1.0     0.514682     0.057883     0.290097  Biso 1.000000     H
    H   1.0     0.000000     0.057884     0.290129  Biso 1.000000     H
    H   1.0     0.494241     0.760522     0.062715  Biso 1.000000     H
    H   1.0     0.994290     0.760512     0.062696  Biso 1.000000     H
    H   1.0     0.180662     0.744182     0.298181  Biso 1.000000     H
    H   1.0     0.680667     0.744179     0.298169  Biso 1.000000     H
    H   1.0     0.005203     0.523528     0.118135  Biso 1.000000     H
    H   1.0     0.505194     0.523530     0.118120  Biso 1.000000     H
    H   1.0     0.231000     0.947421     0.258953  Biso 1.000000     H
    H   1.0     0.730999     0.947411     0.258914  Biso 1.000000     H
    H   1.0     0.252918     0.853192     0.281588  Biso 1.000000     H
    H   1.0     0.752924     0.853175     0.281528  Biso 1.000000     H
    C   1.0     0.234302     0.686580     0.624720  Biso 1.000000     C
    C   1.0     0.734311     0.686581     0.624718  Biso 1.000000     C
    C   1.0     0.261051     0.765275     0.675957  Biso 1.000000     C
    C   1.0     0.761065     0.765275     0.675957  Biso 1.000000     C
    C   1.0     0.326453     0.679994     0.745419  Biso 1.000000     C
    C   1.0     0.826458     0.679988     0.745416  Biso 1.000000     C
    C   1.0     0.368896     0.828814     0.824510  Biso 1.000000     C
    C   1.0     0.868905     0.828808     0.824511  Biso 1.000000     C
    C   1.0     0.363699     0.910136     0.820904  Biso 1.000000     C
    C   1.0     0.863664     0.910126     0.820924  Biso 1.000000     C
    C   1.0     0.414542     0.976582     0.889164  Biso 1.000000     C
    C   1.0     0.914503     0.976573     0.889186  Biso 1.000000     C
    C   1.0     0.472595     0.964786     0.963737  Biso 1.000000     C
    C   1.0     0.972605     0.964782     0.963737  Biso 1.000000     C
    C   1.0     0.475103     0.882285     0.966000  Biso 1.000000     C
    C   1.0     0.975163     0.882284     0.965981  Biso 1.000000     C
    C   1.0     0.424367     0.815158     0.898604  Biso 1.000000     C
    C   1.0     0.924430     0.815157     0.898584  Biso 1.000000     C
    C   1.0     0.140895     0.309804     0.779070  Biso 1.000000     C
    C   1.0     0.640899     0.309800     0.779069  Biso 1.000000     C
    C   1.0     0.129425     0.231041     0.790375  Biso 1.000000     C
    C   1.0     0.629422     0.231038     0.790376  Biso 1.000000     C
    C   1.0     0.235588     0.318067     0.903642  Biso 1.000000     C
    C   1.0     0.735606     0.318058     0.903632  Biso 1.000000     C
    C   1.0     0.205393     0.169218     0.907969  Biso 1.000000     C
    C   1.0     0.705383     0.169211     0.907969  Biso 1.000000     C
    C   1.0     0.270806     0.183584     0.987648  Biso 1.000000     C
    C   1.0     0.770713     0.183586     0.987693  Biso 1.000000     C
    C   1.0     0.287467     0.117184     0.022192  Biso 1.000000     C
    C   1.0     0.787365     0.117186     0.022241  Biso 1.000000     C
    C   1.0     0.240421     0.034646     0.980524  Biso 1.000000     C
    C   1.0     0.740401     0.034639     0.980529  Biso 1.000000     C
    C   1.0     0.173949     0.022084     0.901061  Biso 1.000000     C
    C   1.0     0.674010     0.022067     0.901020  Biso 1.000000     C
    C   1.0     0.156502     0.087841     0.865451  Biso 1.000000     C
    C   1.0     0.656571     0.087824     0.865407  Biso 1.000000     C
    C   1.0     0.132008     0.595844     0.797340  Biso 1.000000     C
    C   1.0     0.632018     0.595854     0.797349  Biso 1.000000     C
    C   1.0     0.395792     0.574487     0.519954  Biso 1.000000     C
    C   1.0     0.895797     0.574485     0.519942  Biso 1.000000     C
    C   1.0     0.466835     0.625516     0.600230  Biso 1.000000     C
    C   1.0     0.966834     0.625514     0.600221  Biso 1.000000     C
    C   1.0     0.014614     0.587476     0.658709  Biso 1.000000     C
    C   1.0     0.514618     0.587484     0.658723  Biso 1.000000     C
    C   1.0     0.074510     0.636099     0.736963  Biso 1.000000     C
    C   1.0     0.574521     0.636111     0.736972  Biso 1.000000     C
    C   1.0     0.082727     0.721865     0.757175  Biso 1.000000     C
    C   1.0     0.582749     0.721879     0.757175  Biso 1.000000     C
    C   1.0     0.035388     0.759741     0.697614  Biso 1.000000     C
    C   1.0     0.535401     0.759749     0.697611  Biso 1.000000     C
    C   1.0     0.479468     0.712049     0.618033  Biso 1.000000     C
    C   1.0     0.979464     0.712046     0.618032  Biso 1.000000     C
    C   1.0    -0.008114     0.884448     0.669490  Biso 1.000000     C
    C   1.0     0.491893     0.884450     0.669476  Biso 1.000000     C
    C   1.0     0.033950     0.910850     0.602491  Biso 1.000000     C
    C   1.0     0.533948     0.910856     0.602476  Biso 1.000000     C
    C   1.0     0.354057     0.418906     0.732337  Biso 1.000000     C
    C   1.0     0.854062     0.418906     0.732324  Biso 1.000000     C
    C   1.0     0.089840     0.402456     0.995408  Biso 1.000000     C
    C   1.0     0.589846     0.402442     0.995406  Biso 1.000000     C
    C   1.0     0.009777     0.361764     0.916736  Biso 1.000000     C
    C   1.0     0.509783     0.361748     0.916733  Biso 1.000000     C
    C   1.0     0.475967     0.275811     0.895001  Biso 1.000000     C
    C   1.0     0.975957     0.275829     0.895014  Biso 1.000000     C
    C   1.0     0.406880     0.236665     0.818087  Biso 1.000000     C
    C   1.0     0.906879     0.236677     0.818096  Biso 1.000000     C
    C   1.0     0.371127     0.283375     0.763235  Biso 1.000000     C
    C   1.0     0.871130     0.283381     0.763236  Biso 1.000000     C
    C   1.0     0.400812     0.370058     0.788211  Biso 1.000000     C
    C   1.0     0.900818     0.370064     0.788205  Biso 1.000000     C
    C   1.0     0.470454     0.409497     0.864068  Biso 1.000000     C
    C   1.0     0.970459     0.409509     0.864060  Biso 1.000000     C
    C   1.0     0.300935     0.110829     0.728838  Biso 1.000000     C
    C   1.0     0.800988     0.110820     0.728827  Biso 1.000000     C
    C   1.0     0.327693     0.086086     0.647174  Biso 1.000000     C
    C   1.0     0.827825     0.086086     0.647204  Biso 1.000000     C
    C   1.0     0.265671     0.313633     0.375370  Biso 1.000000     C
    C   1.0     0.765673     0.313637     0.375368  Biso 1.000000     C
    C   1.0     0.239155     0.234936     0.324150  Biso 1.000000     C
    C   1.0     0.739156     0.234939     0.324150  Biso 1.000000     C
    C   1.0     0.173352     0.320014     0.254659  Biso 1.000000     C
    C   1.0     0.673352     0.320015     0.254656  Biso 1.000000     C
    C   1.0     0.131436     0.171224     0.175593  Biso 1.000000     C
    C   1.0     0.631438     0.171225     0.175592  Biso 1.000000     C
    C   1.0     0.135460     0.089827     0.179777  Biso 1.000000     C
    C   1.0     0.635466     0.089828     0.179773  Biso 1.000000     C
    C   1.0     0.084630     0.023339     0.111554  Biso 1.000000     C
    C   1.0     0.584637     0.023341     0.111548  Biso 1.000000     C
    C   1.0     0.027807     0.035194     0.036424  Biso 1.000000     C
    C   1.0     0.527804     0.035197     0.036424  Biso 1.000000     C
    C   1.0     0.026624     0.117765     0.033547  Biso 1.000000     C
    C   1.0     0.526618     0.117767     0.033549  Biso 1.000000     C
    C   1.0     0.077276     0.184926     0.100934  Biso 1.000000     C
    C   1.0     0.577269     0.184928     0.100938  Biso 1.000000     C
    C   1.0     0.359012     0.690173     0.220763  Biso 1.000000     C
    C   1.0     0.859013     0.690167     0.220766  Biso 1.000000     C
    C   1.0     0.370619     0.768870     0.209282  Biso 1.000000     C
    C   1.0     0.870612     0.768866     0.209288  Biso 1.000000     C
    C   1.0     0.263966     0.681833     0.096343  Biso 1.000000     C
    C   1.0     0.763989     0.681821     0.096334  Biso 1.000000     C
    C   1.0     0.294633     0.830567     0.091612  Biso 1.000000     C
    C   1.0     0.794625     0.830559     0.091615  Biso 1.000000     C
    C   1.0     0.230989     0.815962     0.010989  Biso 1.000000     C
    C   1.0     0.730888     0.815963     0.011039  Biso 1.000000     C
    C   1.0     0.214414     0.882353     0.976376  Biso 1.000000     C
    C   1.0     0.714301     0.882353     0.976430  Biso 1.000000     C
    C   1.0     0.259704     0.965083     0.018941  Biso 1.000000     C
    C   1.0     0.759684     0.965075     0.018947  Biso 1.000000     C
    C   1.0     0.324517     0.977877     0.099315  Biso 1.000000     C
    C   1.0     0.824589     0.977859     0.099273  Biso 1.000000     C
    C   1.0     0.341915     0.912145     0.134965  Biso 1.000000     C
    C   1.0     0.841995     0.912127     0.134921  Biso 1.000000     C
    C   1.0     0.367888     0.402243     0.201281  Biso 1.000000     C
    C   1.0     0.867895     0.402261     0.201295  Biso 1.000000     C
    C   1.0     0.103527     0.425289     0.479895  Biso 1.000000     C
    C   1.0     0.603525     0.425284     0.479885  Biso 1.000000     C
    C   1.0     0.032718     0.373924     0.399591  Biso 1.000000     C
    C   1.0     0.532718     0.373912     0.399582  Biso 1.000000     C
    C   1.0     0.484946     0.411605     0.340700  Biso 1.000000     C
    C   1.0     0.984946     0.411620     0.340715  Biso 1.000000     C
    C   1.0     0.425325     0.362650     0.262476  Biso 1.000000     C
    C   1.0     0.925334     0.362668     0.262486  Biso 1.000000     C
    C   1.0     0.417253     0.276905     0.242738  Biso 1.000000     C
    C   1.0     0.917277     0.276926     0.242737  Biso 1.000000     C
    C   1.0     0.464589     0.239373     0.302619  Biso 1.000000     C
    C   1.0     0.964625     0.239393     0.302609  Biso 1.000000     C
    C   1.0     0.020364     0.287404     0.382133  Biso 1.000000     C
    C   1.0     0.520346     0.287390     0.382136  Biso 1.000000     C
    C   1.0     0.508253     0.114839     0.331161  Biso 1.000000     C
    C   1.0     0.000000     0.114876     0.331162  Biso 1.000000     C
    C   1.0     0.465938     0.088068     0.397859  Biso 1.000000     C
    C   1.0     0.965964     0.088205     0.397885  Biso 1.000000     C
    C   1.0     0.145973     0.581253     0.267703  Biso 1.000000     C
    C   1.0     0.645971     0.581249     0.267687  Biso 1.000000     C
    C   1.0     0.410105     0.597543     0.004603  Biso 1.000000     C
    C   1.0     0.910138     0.597537     0.004594  Biso 1.000000     C
    C   1.0     0.490147     0.638313     0.083282  Biso 1.000000     C
    C   1.0     0.990172     0.638307     0.083280  Biso 1.000000     C
    C   1.0     0.023928     0.724249     0.104957  Biso 1.000000     C
    C   1.0     0.523899     0.724256     0.104965  Biso 1.000000     C
    C   1.0     0.093020     0.763438     0.181858  Biso 1.000000     C
    C   1.0     0.593001     0.763442     0.181861  Biso 1.000000     C
    C   1.0     0.128843     0.716782     0.236745  Biso 1.000000     C
    C   1.0     0.628839     0.716781     0.236736  Biso 1.000000     C
    C   1.0     0.099214     0.630090     0.211812  Biso 1.000000     C
    C   1.0     0.599213     0.630089     0.211799  Biso 1.000000     C
    C   1.0     0.029547     0.590610     0.135984  Biso 1.000000     C
    C   1.0     0.529538     0.590612     0.135974  Biso 1.000000     C
    C   1.0     0.198456     0.889447     0.271341  Biso 1.000000     C
    C   1.0     0.698470     0.889443     0.271321  Biso 1.000000     C
    C   1.0     0.170939     0.913775     0.352677  Biso 1.000000     C
    C   1.0     0.671047     0.913786     0.352704  Biso 1.000000     C
    N   1.0     0.275391     0.634297     0.668732  Biso 1.000000     N
    N   1.0     0.775395     0.634294     0.668728  Biso 1.000000     N
    N   1.0     0.319952     0.761039     0.752985  Biso 1.000000     N
    N   1.0     0.819963     0.761035     0.752984  Biso 1.000000     N
    N   1.0     0.206971     0.363224     0.849906  Biso 1.000000     N
    N   1.0     0.706989     0.363217     0.849899  Biso 1.000000     N
    N   1.0     0.190008     0.236307     0.870062  Biso 1.000000     N
    N   1.0     0.690012     0.236300     0.870058  Biso 1.000000     N
    N   1.0     0.224335     0.365794     0.331337  Biso 1.000000     N
    N   1.0     0.724336     0.365796     0.331333  Biso 1.000000     N
    N   1.0     0.180168     0.239048     0.247117  Biso 1.000000     N
    N   1.0     0.680169     0.239049     0.247117  Biso 1.000000     N
    N   1.0     0.292633     0.636740     0.150131  Biso 1.000000     N
    N   1.0     0.792653     0.636731     0.150124  Biso 1.000000     N
    N   1.0     0.309834     0.763546     0.129673  Biso 1.000000     N
    N   1.0     0.809839     0.763538     0.129672  Biso 1.000000     N
    O   1.0     0.350083     0.503353     0.520855  Biso 1.000000     O
    O   1.0     0.850085     0.503352     0.520845  Biso 1.000000     O
    O   1.0     0.379000     0.603755     0.455060  Biso 1.000000     O
    O   1.0     0.879001     0.603756     0.455051  Biso 1.000000     O
    O   1.0     0.144308     0.524267     0.764005  Biso 1.000000     O
    O   1.0     0.644317     0.524276     0.764010  Biso 1.000000     O
    O   1.0     0.167831     0.632285     0.874718  Biso 1.000000     O
    O   1.0     0.667846     0.632295     0.874725  Biso 1.000000     O
    O   1.0     0.047923     0.845174     0.723518  Biso 1.000000     O
    O   1.0     0.547940     0.845184     0.723505  Biso 1.000000     O
    O   1.0     0.119772     0.913301     0.607475  Biso 1.000000     O
    O   1.0     0.619779     0.913321     0.607469  Biso 1.000000     O
    O   1.0    -0.019435     0.933737     0.542376  Biso 1.000000     O
    O   1.0     0.480564     0.933734     0.542358  Biso 1.000000     O
    O   1.0     0.339644     0.488986     0.766559  Biso 1.000000     O
    O   1.0     0.839645     0.488986     0.766541  Biso 1.000000     O
    O   1.0     0.327832     0.389066     0.652685  Biso 1.000000     O
    O   1.0     0.827838     0.389063     0.652673  Biso 1.000000     O
    O   1.0     0.106359     0.367841     0.055869  Biso 1.000000     O
    O   1.0     0.606371     0.367828     0.055867  Biso 1.000000     O
    O   1.0     0.140745     0.472563     0.996499  Biso 1.000000     O
    O   1.0     0.640746     0.472551     0.996495  Biso 1.000000     O
    O   1.0     0.378077     0.151075     0.801639  Biso 1.000000     O
    O   1.0     0.878082     0.151086     0.801659  Biso 1.000000     O
    O   1.0     0.411881     0.082771     0.649629  Biso 1.000000     O
    O   1.0     0.912029     0.082829     0.649693  Biso 1.000000     O
    O   1.0     0.262114     0.065648     0.576093  Biso 1.000000     O
    O   1.0     0.762266     0.065598     0.576093  Biso 1.000000     O
    O   1.0     0.148679     0.496654     0.479057  Biso 1.000000     O
    O   1.0     0.648678     0.496648     0.479045  Biso 1.000000     O
    O   1.0     0.120702     0.396058     0.544811  Biso 1.000000     O
    O   1.0     0.620703     0.396055     0.544803  Biso 1.000000     O
    O   1.0     0.356058     0.474338     0.233785  Biso 1.000000     O
    O   1.0     0.856064     0.474355     0.233798  Biso 1.000000     O
    O   1.0     0.331829     0.364740     0.124333  Biso 1.000000     O
    O   1.0     0.831826     0.364754     0.124348  Biso 1.000000     O
    O   1.0     0.452135     0.153913     0.276995  Biso 1.000000     O
    O   1.0     0.952210     0.153941     0.276968  Biso 1.000000     O
    O   1.0     0.379803     0.084715     0.392239  Biso 1.000000     O
    O   1.0     0.879892     0.085079     0.392355  Biso 1.000000     O
    O   1.0     0.519476     0.065947     0.458418  Biso 1.000000     O
    O   1.0     0.000000     0.065935     0.458385  Biso 1.000000     O
    O   1.0     0.160511     0.511210     0.233546  Biso 1.000000     O
    O   1.0     0.660507     0.511205     0.233527  Biso 1.000000     O
    O   1.0     0.171943     0.611023     0.347369  Biso 1.000000     O
    O   1.0     0.671945     0.611019     0.347353  Biso 1.000000     O
    O   1.0     0.393570     0.632151     0.944139  Biso 1.000000     O
    O   1.0     0.893628     0.632140     0.944125  Biso 1.000000     O
    O   1.0     0.359256     0.527420     0.003544  Biso 1.000000     O
    O   1.0     0.859265     0.527426     0.003540  Biso 1.000000     O
    O   1.0     0.121744     0.849040     0.198252  Biso 1.000000     O
    O   1.0     0.621712     0.849046     0.198266  Biso 1.000000     O
    O   1.0     0.086645     0.916837     0.349839  Biso 1.000000     O
    O   1.0     0.586760     0.916843     0.349930  Biso 1.000000     O
    O   1.0     0.236136     0.934208     0.424097  Biso 1.000000     O
    O   1.0     0.736307     0.934233     0.424078  Biso 1.000000     O
   Cd   1.0     0.257354     0.496122     0.620930  Biso 1.000000    Cd
   Cd   1.0     0.757357     0.496120     0.620915  Biso 1.000000    Cd
   Cd   1.0     0.118186     0.974798     0.494100  Biso 1.000000    Cd
   Cd   1.0     0.618268     0.974823     0.494132  Biso 1.000000    Cd
   Cd   1.0     0.252860     0.505780     0.874460  Biso 1.000000    Cd
   Cd   1.0     0.752883     0.505779     0.874448  Biso 1.000000    Cd
   Cd   1.0     0.241603     0.503827     0.379496  Biso 1.000000    Cd
   Cd   1.0     0.741606     0.503828     0.379483  Biso 1.000000    Cd
   Cd   1.0     0.380858     0.024319     0.506005  Biso 1.000000    Cd
   Cd   1.0     0.880946     0.024403     0.506014  Biso 1.000000    Cd
   Cd   1.0     0.247093     0.494095     0.125490  Biso 1.000000    Cd
   Cd   1.0     0.747102     0.494089     0.125480  Biso 1.000000    Cd
