#======================================================================

# CRYSTAL DATA

#----------------------------------------------------------------------

data_VESTA_phase_1


_pd_phase_name                         MOF
_cell_length_a                         12.47600
_cell_length_b                         21.39600
_cell_length_c                         22.30000
_cell_angle_alpha                      102.09300
_cell_angle_beta                       90.00400
_cell_angle_gamma                      89.93300
_symmetry_space_group_name_H-M         "P 1"
_symmetry_Int_Tables_number            1

loop_
_symmetry_equiv_pos_as_xyz
   "x, y, z"

loop_
   _atom_site_label
   _atom_site_occupancy
   _atom_site_fract_x
   _atom_site_fract_y
   _atom_site_fract_z
   _atom_site_adp_type
   _atom_site_B_iso_or_equiv
   _atom_site_type_symbol
    H   1.0     0.856215     0.820870     0.305347  Biso 1.000000     H
    H   1.0     0.755326     0.724866     0.317981  Biso 1.000000     H
    H   1.0     0.461466     0.826354     0.293500  Biso 1.000000     H
    H   1.0     0.573627     0.917209     0.279589  Biso 1.000000     H
    H   1.0     0.974332     0.084176     0.217384  Biso 1.000000     H
    H   1.0     0.086827     0.176508     0.204994  Biso 1.000000     H
    H   1.0     0.794511     0.268772     0.161508  Biso 1.000000     H
    H   1.0     0.695397     0.173740     0.177266  Biso 1.000000     H
    H   1.0     0.990150     0.919980     0.319578  Biso 1.000000     H
    H   1.0     0.026317     0.904200     0.423563  Biso 1.000000     H
    H   1.0     0.954935     0.106630     0.490110  Biso 1.000000     H
    H   1.0     0.925939     0.113371     0.381134  Biso 1.000000     H
    H   1.0    -0.003922     0.451465     0.193868  Biso 1.000000     H
    H   1.0     0.882887     0.356323     0.194676  Biso 1.000000     H
    H   1.0     0.170851     0.240300     0.158193  Biso 1.000000     H
    H   1.0     0.272234     0.338923     0.160163  Biso 1.000000     H
    H   1.0     0.562093     0.546966     0.289986  Biso 1.000000     H
    H   1.0     0.664697     0.642444     0.276795  Biso 1.000000     H
    H   1.0     0.386604     0.757573     0.346955  Biso 1.000000     H
    H   1.0     0.294449     0.657920     0.354978  Biso 1.000000     H
    H   1.0     0.446859    -0.007238     0.178755  Biso 1.000000     H
    H   1.0     0.368898     0.008989     0.079888  Biso 1.000000     H
    H   1.0     0.687429     0.978304     0.000000  Biso 1.000000     H
    H   1.0     0.751393     0.965532     0.103964  Biso 1.000000     H
    H   1.0     0.356978     0.678482     0.192788  Biso 1.000000     H
    H   1.0     0.255890     0.774348     0.179226  Biso 1.000000     H
    H   1.0     0.962279     0.674135     0.205902  Biso 1.000000     H
    H   1.0     0.074313     0.583406     0.220473  Biso 1.000000     H
    H   1.0     0.474033     0.416387     0.283085  Biso 1.000000     H
    H   1.0     0.586964     0.324199     0.295775  Biso 1.000000     H
    H   1.0     0.294845     0.231679     0.338669  Biso 1.000000     H
    H   1.0     0.195203     0.326692     0.322625  Biso 1.000000     H
    H   1.0     0.488964     0.579368     0.180517  Biso 1.000000     H
    H   1.0     0.524868     0.595631     0.076603  Biso 1.000000     H
    H   1.0     0.455668     0.393155     0.009487  Biso 1.000000     H
    H   1.0     0.426400     0.385987     0.118358  Biso 1.000000     H
    H   1.0     0.498028     0.049353     0.307105  Biso 1.000000     H
    H   1.0     0.384072     0.144200     0.306395  Biso 1.000000     H
    H   1.0     0.671402     0.260607     0.341881  Biso 1.000000     H
    H   1.0     0.773674     0.162173     0.339754  Biso 1.000000     H
    H   1.0     0.061787     0.953031     0.209785  Biso 1.000000     H
    H   1.0     0.165238     0.857319     0.221971  Biso 1.000000     H
    H   1.0     0.887503     0.742419     0.151395  Biso 1.000000     H
    H   1.0     0.794851     0.842200     0.144008  Biso 1.000000     H
    H   1.0     0.948004     0.509142     0.321606  Biso 1.000000     H
    H   1.0     0.869271     0.492350     0.420090  Biso 1.000000     H
    H   1.0     0.187642     0.520905     0.498845  Biso 1.000000     H
    H   1.0     0.252292     0.534378     0.396701  Biso 1.000000     H
    H   1.0     0.143836     0.179112     0.694650  Biso 1.000000     H
    H   1.0     0.244725     0.275117     0.682015  Biso 1.000000     H
    H   1.0     0.538584     0.173629     0.706496  Biso 1.000000     H
    H   1.0     0.426425     0.082772     0.720405  Biso 1.000000     H
    H   1.0     0.025720     0.915806     0.782611  Biso 1.000000     H
    H   1.0     0.913224     0.823474     0.795002  Biso 1.000000     H
    H   1.0     0.205539     0.731209     0.838487  Biso 1.000000     H
    H   1.0     0.304653     0.826240     0.822728  Biso 1.000000     H
    H   1.0     0.009895     0.080001     0.680421  Biso 1.000000     H
    H   1.0     0.973737     0.095782     0.576435  Biso 1.000000     H
    H   1.0     0.045123     0.893354     0.509886  Biso 1.000000     H
    H   1.0     0.074124     0.886612     0.618861  Biso 1.000000     H
    H   1.0     0.000000     0.548517     0.806129  Biso 1.000000     H
    H   1.0     0.117164     0.643658     0.805320  Biso 1.000000     H
    H   1.0     0.829198     0.759682     0.841799  Biso 1.000000     H
    H   1.0     0.727817     0.661059     0.839831  Biso 1.000000     H
    H   1.0     0.437957     0.453017     0.710011  Biso 1.000000     H
    H   1.0     0.335354     0.357539     0.723202  Biso 1.000000     H
    H   1.0     0.613446     0.242409     0.653040  Biso 1.000000     H
    H   1.0     0.705603     0.342061     0.645018  Biso 1.000000     H
    H   1.0     0.553219     0.000000     0.821258  Biso 1.000000     H
    H   1.0     0.631181     0.991070     0.920133  Biso 1.000000     H
    H   1.0     0.312608     0.021607    -0.001521  Biso 1.000000     H
    H   1.0     0.248643     0.034398     0.896023  Biso 1.000000     H
    H   1.0     0.643080     0.321498     0.807211  Biso 1.000000     H
    H   1.0     0.744164     0.225630     0.820775  Biso 1.000000     H
    H   1.0     0.037777     0.325845     0.794099  Biso 1.000000     H
    H   1.0     0.925738     0.416572     0.779527  Biso 1.000000     H
    H   1.0     0.526019     0.583592     0.716912  Biso 1.000000     H
    H   1.0     0.413090     0.675782     0.704222  Biso 1.000000     H
    H   1.0     0.705215     0.768297     0.661325  Biso 1.000000     H
    H   1.0     0.804854     0.673283     0.677369  Biso 1.000000     H
    H   1.0     0.511089     0.420614     0.819482  Biso 1.000000     H
    H   1.0     0.475180     0.404352     0.923395  Biso 1.000000     H
    H   1.0     0.544396     0.606826     0.990511  Biso 1.000000     H
    H   1.0     0.573657     0.613996     0.881640  Biso 1.000000     H
    H   1.0     0.502074     0.950630     0.692897  Biso 1.000000     H
    H   1.0     0.616007     0.855772     0.693605  Biso 1.000000     H
    H   1.0     0.328656     0.739386     0.658115  Biso 1.000000     H
    H   1.0     0.226402     0.837827     0.660243  Biso 1.000000     H
    H   1.0     0.938271     0.046950     0.790208  Biso 1.000000     H
    H   1.0     0.834819     0.142662     0.778024  Biso 1.000000     H
    H   1.0     0.112553     0.257561     0.848602  Biso 1.000000     H
    H   1.0     0.205203     0.157778     0.855989  Biso 1.000000     H
    H   1.0     0.052047     0.490846     0.678395  Biso 1.000000     H
    H   1.0     0.130779     0.507640     0.579911  Biso 1.000000     H
    H   1.0     0.812415     0.479064     0.501151  Biso 1.000000     H
    H   1.0     0.747763     0.465595     0.603296  Biso 1.000000     H
    C   1.0     0.769138     0.818473     0.302556  Biso 1.000000     C
    C   1.0     0.710845     0.766060     0.309963  Biso 1.000000     C
    C   1.0     0.598397     0.766540     0.307338  Biso 1.000000     C
    C   1.0     0.548176     0.822179     0.297397  Biso 1.000000     C
    C   1.0     0.608577     0.873814     0.289260  Biso 1.000000     C
    C   1.0     0.941525     0.125656     0.202862  Biso 1.000000     C
    C   1.0     0.001533     0.177478     0.195187  Biso 1.000000     C
    C   1.0     0.952564     0.231483     0.180386  Biso 1.000000     C
    C   1.0     0.840559     0.229737     0.173160  Biso 1.000000     C
    C   1.0     0.782289     0.177346     0.181115  Biso 1.000000     C
    C   1.0     0.982602     0.958834     0.359233  Biso 1.000000     C
    C   1.0     0.001663     0.951686     0.418311  Biso 1.000000     C
    C   1.0     0.990991     0.003787     0.468223  Biso 1.000000     C
    C   1.0     0.963622     0.063335     0.454628  Biso 1.000000     C
    C   1.0     0.945461     0.068841     0.394828  Biso 1.000000     C
    C   1.0     0.028940     0.403169     0.185419  Biso 1.000000     C
    C   1.0     0.968175     0.349326     0.185404  Biso 1.000000     C
    C   1.0     0.015622     0.288468     0.176430  Biso 1.000000     C
    C   1.0     0.126855     0.285233     0.166339  Biso 1.000000     C
    C   1.0     0.185903     0.339735     0.166580  Biso 1.000000     C
    C   1.0     0.530096     0.595024     0.304033  Biso 1.000000     C
    C   1.0     0.585368     0.648960     0.297725  Biso 1.000000     C
    C   1.0     0.537455     0.709663     0.313840  Biso 1.000000     C
    C   1.0     0.431103     0.712850     0.334941  Biso 1.000000     C
    C   1.0     0.377641     0.657800     0.340484  Biso 1.000000     C
    C   1.0     0.494206    -0.008422     0.137413  Biso 1.000000     C
    C   1.0     0.454352    -0.000432     0.081717  Biso 1.000000     C
    C   1.0     0.520749     0.995756     0.029916  Biso 1.000000     C
    C   1.0     0.629668     0.983015     0.038692  Biso 1.000000     C
    C   1.0     0.668243     0.975668     0.094761  Biso 1.000000     C
    C   1.0     0.269909     0.681112     0.195736  Biso 1.000000     C
    C   1.0     0.211563     0.733445     0.187922  Biso 1.000000     C
    C   1.0     0.099160     0.733290     0.191052  Biso 1.000000     C
    C   1.0     0.048938     0.678014     0.201694  Biso 1.000000     C
    C   1.0     0.109370     0.626476     0.210233  Biso 1.000000     C
    C   1.0     0.441374     0.374896     0.297564  Biso 1.000000     C
    C   1.0     0.501639     0.323167     0.305421  Biso 1.000000     C
    C   1.0     0.452836     0.269120     0.320109  Biso 1.000000     C
    C   1.0     0.340761     0.270751     0.327092  Biso 1.000000     C
    C   1.0     0.282218     0.323080     0.318980  Biso 1.000000     C
    C   1.0     0.481701     0.540648     0.140742  Biso 1.000000     C
    C   1.0     0.500730     0.548063     0.081754  Biso 1.000000     C
    C   1.0     0.490796     0.496075     0.031718  Biso 1.000000     C
    C   1.0     0.463906     0.436389     0.045079  Biso 1.000000     C
    C   1.0     0.445607     0.430626     0.104797  Biso 1.000000     C
    C   1.0     0.530686     0.097628     0.315415  Biso 1.000000     C
    C   1.0     0.469364     0.151355     0.315461  Biso 1.000000     C
    C   1.0     0.516388     0.212251     0.324162  Biso 1.000000     C
    C   1.0     0.627697     0.215647     0.333962  Biso 1.000000     C
    C   1.0     0.687265     0.161243     0.333631  Biso 1.000000     C
    C   1.0     0.030140     0.904976     0.195334  Biso 1.000000     C
    C   1.0     0.085816     0.850924     0.201135  Biso 1.000000     C
    C   1.0     0.038132     0.790251     0.184691  Biso 1.000000     C
    C   1.0     0.931778     0.787139     0.163680  Biso 1.000000     C
    C   1.0     0.878002     0.842286     0.158566  Biso 1.000000     C
    C   1.0    -0.004954     0.509728     0.362927  Biso 1.000000     C
    C   1.0     0.954835     0.501387     0.418407  Biso 1.000000     C
    C   1.0     0.020950     0.504420     0.470203  Biso 1.000000     C
    C   1.0     0.130046     0.516781     0.461636  Biso 1.000000     C
    C   1.0     0.169022     0.524488     0.405766  Biso 1.000000     C
    C   1.0     0.230913     0.181509     0.697442  Biso 1.000000     C
    C   1.0     0.289206     0.233922     0.690033  Biso 1.000000     C
    C   1.0     0.401653     0.233443     0.692658  Biso 1.000000     C
    C   1.0     0.451874     0.177802     0.702598  Biso 1.000000     C
    C   1.0     0.391473     0.126168     0.710736  Biso 1.000000     C
    C   1.0     0.058526     0.874324     0.797131  Biso 1.000000     C
    C   1.0     0.998518     0.822504     0.804808  Biso 1.000000     C
    C   1.0     0.047487     0.768498     0.819609  Biso 1.000000     C
    C   1.0     0.159492     0.770244     0.826835  Biso 1.000000     C
    C   1.0     0.217761     0.822633     0.818876  Biso 1.000000     C
    C   1.0     0.017450     0.041147     0.640765  Biso 1.000000     C
    C   1.0     0.998387     0.048295     0.581687  Biso 1.000000     C
    C   1.0     0.009067     0.996197     0.531772  Biso 1.000000     C
    C   1.0     0.036438     0.936649     0.545369  Biso 1.000000     C
    C   1.0     0.054596     0.931141     0.605168  Biso 1.000000     C
    C   1.0     0.971110     0.596813     0.814582  Biso 1.000000     C
    C   1.0     0.031876     0.650655     0.814594  Biso 1.000000     C
    C   1.0     0.984429     0.711513     0.823565  Biso 1.000000     C
    C   1.0     0.873196     0.714750     0.833657  Biso 1.000000     C
    C   1.0     0.814150     0.660247     0.833418  Biso 1.000000     C
    C   1.0     0.469956     0.404959     0.695967  Biso 1.000000     C
    C   1.0     0.414682     0.351022     0.702272  Biso 1.000000     C
    C   1.0     0.462596     0.290319     0.686157  Biso 1.000000     C
    C   1.0     0.568948     0.287133     0.665055  Biso 1.000000     C
    C   1.0     0.622412     0.342182     0.659513  Biso 1.000000     C
    C   1.0     0.505870     0.000000     0.862596  Biso 1.000000     C
    C   1.0     0.545714     0.000000     0.918294  Biso 1.000000     C
    C   1.0     0.479309     0.004228     0.970087  Biso 1.000000     C
    C   1.0     0.370381     0.016935     0.961298  Biso 1.000000     C
    C   1.0     0.331800     0.024283     0.905229  Biso 1.000000     C
    C   1.0     0.730148     0.318863     0.804255  Biso 1.000000     C
    C   1.0     0.788491     0.266533     0.812078  Biso 1.000000     C
    C   1.0     0.900895     0.266691     0.808952  Biso 1.000000     C
    C   1.0     0.951116     0.321966     0.798307  Biso 1.000000     C
    C   1.0     0.890679     0.373498     0.789758  Biso 1.000000     C
    C   1.0     0.558678     0.625083     0.702434  Biso 1.000000     C
    C   1.0     0.498415     0.676813     0.694575  Biso 1.000000     C
    C   1.0     0.547224     0.730858     0.679888  Biso 1.000000     C
    C   1.0     0.659298     0.729225     0.672902  Biso 1.000000     C
    C   1.0     0.717839     0.676895     0.681015  Biso 1.000000     C
    C   1.0     0.518351     0.459334     0.859257  Biso 1.000000     C
    C   1.0     0.499323     0.451920     0.918245  Biso 1.000000     C
    C   1.0     0.509259     0.503908     0.968280  Biso 1.000000     C
    C   1.0     0.536150     0.563594     0.954919  Biso 1.000000     C
    C   1.0     0.554452     0.569357     0.895201  Biso 1.000000     C
    C   1.0     0.469406     0.902357     0.684593  Biso 1.000000     C
    C   1.0     0.530713     0.848624     0.684542  Biso 1.000000     C
    C   1.0     0.483680     0.787730     0.675834  Biso 1.000000     C
    C   1.0     0.372370     0.784343     0.666038  Biso 1.000000     C
    C   1.0     0.312810     0.838752     0.666373  Biso 1.000000     C
    C   1.0     0.969918     0.095005     0.804662  Biso 1.000000     C
    C   1.0     0.914235     0.149056     0.798868  Biso 1.000000     C
    C   1.0     0.961927     0.209728     0.815301  Biso 1.000000     C
    C   1.0     0.068273     0.212842     0.836326  Biso 1.000000     C
    C   1.0     0.122053     0.157693     0.841430  Biso 1.000000     C
    C   1.0     0.000000     0.490257     0.637073  Biso 1.000000     C
    C   1.0     0.045217     0.498596     0.581593  Biso 1.000000     C
    C   1.0     0.979103     0.495561     0.529796  Biso 1.000000     C
    C   1.0     0.870009     0.483193     0.538361  Biso 1.000000     C
    C   1.0     0.831033     0.475488     0.594231  Biso 1.000000     C
    C   1.0     0.502265     0.216175     0.073182  Biso 1.000000     C
    C   1.0     0.491308     0.794817     0.115717  Biso 1.000000     C
    C   1.0     0.326448     0.967818     0.379532  Biso 1.000000     C
    C   1.0     0.001556     0.284010     0.427657  Biso 1.000000     C
    C   1.0     0.991149     0.705241     0.384172  Biso 1.000000     C
    C   1.0     0.825868     0.531571     0.120416  Biso 1.000000     C
    C   1.0     0.497761     0.783806     0.926809  Biso 1.000000     C
    C   1.0     0.508727     0.205156     0.884276  Biso 1.000000     C
    C   1.0     0.673578     0.032154     0.620459  Biso 1.000000     C
    C   1.0     0.998470     0.715962     0.572333  Biso 1.000000     C
    C   1.0     0.008881     0.294733     0.615818  Biso 1.000000     C
    C   1.0     0.174159     0.468400     0.879575  Biso 1.000000     C
    N   1.0     0.717348     0.870938     0.291758  Biso 1.000000     N
    N   1.0     0.833245     0.126273     0.195771  Biso 1.000000     N
    N   1.0     0.952467     0.016484     0.348304  Biso 1.000000     N
    N   1.0     0.136708     0.397701     0.176623  Biso 1.000000     N
    N   1.0     0.427764     0.600128     0.325618  Biso 1.000000     N
    N   1.0     0.600746     0.980267     0.143582  Biso 1.000000     N
    N   1.0     0.218089     0.629093     0.207414  Biso 1.000000     N
    N   1.0     0.333076     0.374161     0.304397  Biso 1.000000     N
    N   1.0     0.452133     0.482871     0.151457  Biso 1.000000     N
    N   1.0     0.638499     0.103227     0.323842  Biso 1.000000     N
    N   1.0     0.927800     0.899951     0.173856  Biso 1.000000     N
    N   1.0     0.101735     0.520601     0.356943  Biso 1.000000     N
    N   1.0     0.282701     0.129044     0.708238  Biso 1.000000     N
    N   1.0     0.166806     0.873707     0.804221  Biso 1.000000     N
    N   1.0     0.047589     0.983498     0.651693  Biso 1.000000     N
    N   1.0     0.863342     0.602281     0.823377  Biso 1.000000     N
    N   1.0     0.572285     0.399852     0.674380  Biso 1.000000     N
    N   1.0     0.399319     0.019716     0.856422  Biso 1.000000     N
    N   1.0     0.781960     0.370887     0.792582  Biso 1.000000     N
    N   1.0     0.666975     0.625816     0.695598  Biso 1.000000     N
    N   1.0     0.547925     0.517111     0.848542  Biso 1.000000     N
    N   1.0     0.361594     0.896762     0.676162  Biso 1.000000     N
    N   1.0     0.072257     0.100027     0.826142  Biso 1.000000     N
    N   1.0     0.898318     0.479378     0.643056  Biso 1.000000     N
    O   1.0     0.777583     0.919953     0.283682  Biso 1.000000     O
    O   1.0     0.773331     0.077240     0.203536  Biso 1.000000     O
    O   1.0     0.930472     0.021722     0.290734  Biso 1.000000     O
    O   1.0     0.194720     0.450244     0.177348  Biso 1.000000     O
    O   1.0     0.374794     0.546738     0.330538  Biso 1.000000     O
    O   1.0     0.636679     0.972915     0.197448  Biso 1.000000     O
    O   1.0     0.278209     0.580250     0.216221  Biso 1.000000     O
    O   1.0     0.273105     0.423181     0.296436  Biso 1.000000     O
    O   1.0     0.430143     0.477331     0.208958  Biso 1.000000     O
    O   1.0     0.697052     0.050791     0.322960  Biso 1.000000     O
    O   1.0     0.874457     0.953424     0.169324  Biso 1.000000     O
    O   1.0     0.137952     0.528326     0.303291  Biso 1.000000     O
    O   1.0     0.222459     0.080029     0.716311  Biso 1.000000     O
    O   1.0     0.226714     0.922743     0.796461  Biso 1.000000     O
    O   1.0     0.069586     0.978257     0.709261  Biso 1.000000     O
    O   1.0     0.805320     0.549739     0.822639  Biso 1.000000     O
    O   1.0     0.625246     0.453245     0.669454  Biso 1.000000     O
    O   1.0     0.363394     0.027063     0.802552  Biso 1.000000     O
    O   1.0     0.721836     0.419730     0.783777  Biso 1.000000     O
    O   1.0     0.726942     0.576795     0.703560  Biso 1.000000     O
    O   1.0     0.569892     0.522644     0.791036  Biso 1.000000     O
    O   1.0     0.303066     0.949206     0.677029  Biso 1.000000     O
    O   1.0     0.125600     0.046552     0.830666  Biso 1.000000     O
    O   1.0     0.862096     0.471654     0.696707  Biso 1.000000     O
    O   1.0     0.605881     0.280183     0.169140  Biso 1.000000     O
    O   1.0     0.500164     0.185420     0.180578  Biso 1.000000     O
    O   1.0     0.407338     0.285088     0.168573  Biso 1.000000     O
    O   1.0     0.676062     0.765312     0.156281  Biso 1.000000     O
    O   1.0     0.593131     0.688125     0.069663  Biso 1.000000     O
    O   1.0     0.517333     0.701712     0.174144  Biso 1.000000     O
    O   1.0     0.305179     0.876604     0.281400  Biso 1.000000     O
    O   1.0     0.406075     0.973626     0.272030  Biso 1.000000     O
    O   1.0     0.208227     0.978627     0.283973  Biso 1.000000     O
    O   1.0     0.105990     0.218147     0.333087  Biso 1.000000     O
    O   1.0     0.000000     0.315596     0.320383  Biso 1.000000     O
    O   1.0     0.907158     0.218526     0.330776  Biso 1.000000     O
    O   1.0     0.173106     0.732817     0.338753  Biso 1.000000     O
    O   1.0     0.096912     0.810868     0.427033  Biso 1.000000     O
    O   1.0     0.013637     0.797550     0.324308  Biso 1.000000     O
    O   1.0     0.805029     0.625185     0.216530  Biso 1.000000     O
    O   1.0     0.910908     0.530263     0.227490  Biso 1.000000     O
    O   1.0     0.712911     0.522701     0.218429  Biso 1.000000     O
    O   1.0     0.394166     0.719796     0.830853  Biso 1.000000     O
    O   1.0     0.499881     0.814562     0.819417  Biso 1.000000     O
    O   1.0     0.592706     0.714893     0.831420  Biso 1.000000     O
    O   1.0     0.323981     0.234669     0.843713  Biso 1.000000     O
    O   1.0     0.406910     0.311857     0.930330  Biso 1.000000     O
    O   1.0     0.482717     0.298266     0.825853  Biso 1.000000     O
    O   1.0     0.694868     0.123380     0.718590  Biso 1.000000     O
    O   1.0     0.593979     0.026361     0.727971  Biso 1.000000     O
    O   1.0     0.791817     0.021353     0.716018  Biso 1.000000     O
    O   1.0     0.894060     0.781838     0.666909  Biso 1.000000     O
    O   1.0    -0.009030     0.684387     0.679613  Biso 1.000000     O
    O   1.0     0.092889     0.781451     0.669212  Biso 1.000000     O
    O   1.0     0.826945     0.267164     0.661245  Biso 1.000000     O
    O   1.0     0.903118     0.189107     0.572962  Biso 1.000000     O
    O   1.0     0.986414     0.202426     0.675683  Biso 1.000000     O
    O   1.0     0.195015     0.374796     0.783463  Biso 1.000000     O
    O   1.0     0.089139     0.469721     0.772505  Biso 1.000000     O
    O   1.0     0.287136     0.477279     0.781563  Biso 1.000000     O
    F   1.0     0.407757     0.186422     0.054706  Biso 1.000000     F
    F   1.0     0.514009     0.265154     0.044105  Biso 1.000000     F
    F   1.0     0.583073     0.173390     0.054619  Biso 1.000000     F
    F   1.0     0.466862     0.836864     0.168805  Biso 1.000000     F
    F   1.0     0.397777     0.770777     0.088889  Biso 1.000000     F
    F   1.0     0.537732     0.829308     0.077944  Biso 1.000000     F
    F   1.0     0.420866     0.943891     0.395813  Biso 1.000000     F
    F   1.0     0.328699     0.032258     0.400802  Biso 1.000000     F
    F   1.0     0.245906     0.943935     0.408732  Biso 1.000000     F
    F   1.0     0.907612     0.314954     0.445268  Biso 1.000000     F
    F   1.0     0.009308     0.234241     0.456011  Biso 1.000000     F
    F   1.0     0.083251     0.325354     0.447956  Biso 1.000000     F
    F   1.0     0.962947     0.661670     0.332960  Biso 1.000000     F
    F   1.0     0.898637     0.730379     0.411658  Biso 1.000000     F
    F   1.0     0.041346     0.672174     0.422087  Biso 1.000000     F
    F   1.0     0.916493     0.557303     0.101656  Biso 1.000000     F
    F   1.0     0.833234     0.466854     0.101647  Biso 1.000000     F
    F   1.0     0.741382     0.551827     0.091301  Biso 1.000000     F
    F   1.0     0.592266     0.813554     0.945293  Biso 1.000000     F
    F   1.0     0.486028     0.734832     0.955892  Biso 1.000000     F
    F   1.0     0.416961     0.826595     0.945372  Biso 1.000000     F
    F   1.0     0.533161     0.163112     0.831183  Biso 1.000000     F
    F   1.0     0.602253     0.229193     0.911109  Biso 1.000000     F
    F   1.0     0.462292     0.170668     0.922048  Biso 1.000000     F
    F   1.0     0.579163     0.056096     0.604190  Biso 1.000000     F
    F   1.0     0.671353     0.967712     0.599198  Biso 1.000000     F
    F   1.0     0.754122     0.056036     0.591262  Biso 1.000000     F
    F   1.0     0.092417     0.685022     0.554726  Biso 1.000000     F
    F   1.0     0.990733     0.765732     0.543980  Biso 1.000000     F
    F   1.0     0.916768     0.674615     0.552047  Biso 1.000000     F
    F   1.0     0.037092     0.338306     0.667025  Biso 1.000000     F
    F   1.0     0.101398     0.269600     0.588337  Biso 1.000000     F
    F   1.0     0.958684     0.327798     0.577902  Biso 1.000000     F
    F   1.0     0.083534     0.442668     0.898338  Biso 1.000000     F
    F   1.0     0.166819     0.533116     0.898355  Biso 1.000000     F
    F   1.0     0.258644     0.448155     0.908699  Biso 1.000000     F
    S   1.0     0.504318     0.244864     0.157459  Biso 1.000000     S
    S   1.0     0.580228     0.729935     0.130444  Biso 1.000000     S
    S   1.0     0.308533     0.946899     0.294844  Biso 1.000000     S
    S   1.0     0.006703     0.255999     0.343374  Biso 1.000000     S
    S   1.0     0.079308     0.769040     0.366697  Biso 1.000000     S
    S   1.0     0.811042     0.555020     0.205127  Biso 1.000000     S
    S   1.0     0.495726     0.755117     0.842534  Biso 1.000000     S
    S   1.0     0.419817     0.270044     0.869551  Biso 1.000000     S
    S   1.0     0.691515     0.053085     0.705147  Biso 1.000000     S
    S   1.0     0.993341     0.743981     0.656617  Biso 1.000000     S
    S   1.0     0.920735     0.230935     0.633297  Biso 1.000000     S
    S   1.0     0.189004     0.444961     0.794866  Biso 1.000000     S
   Sc   1.0     0.781555     0.999627     0.246757  Biso 1.000000    Sc
   Sc   1.0     0.281465     0.500566     0.253125  Biso 1.000000    Sc
   Sc   1.0     0.218526     0.000353     0.753234  Biso 1.000000    Sc
   Sc   1.0     0.718578     0.499411     0.746870  Biso 1.000000    Sc
