#======================================================================

# CRYSTAL DATA

#----------------------------------------------------------------------

data_VESTA_phase_1


_pd_phase_name                         MOF
_cell_length_a                         14.35200
_cell_length_b                         14.41500
_cell_length_c                         19.89100
_cell_angle_alpha                      90.02500
_cell_angle_beta                       89.97200
_cell_angle_gamma                      90.00200
_symmetry_space_group_name_H-M         "P 1"
_symmetry_Int_Tables_number            1

loop_
_symmetry_equiv_pos_as_xyz
   "x, y, z"

loop_
   _atom_site_label
   _atom_site_occupancy
   _atom_site_fract_x
   _atom_site_fract_y
   _atom_site_fract_z
   _atom_site_adp_type
   _atom_site_B_iso_or_equiv
   _atom_site_type_symbol
    H   1.0     0.355629     0.358641     0.551913  Biso 1.000000     H
    H   1.0     0.357421     0.856910     0.551910  Biso 1.000000     H
    H   1.0     0.856567     0.357535     0.552005  Biso 1.000000     H
    H   1.0     0.856190     0.857723     0.551987  Biso 1.000000     H
    H   1.0     0.107923     0.393346     0.051833  Biso 1.000000     H
    H   1.0     0.107736     0.893163     0.051805  Biso 1.000000     H
    H   1.0     0.608920     0.394379     0.051844  Biso 1.000000     H
    H   1.0     0.608671     0.894081     0.051815  Biso 1.000000     H
    H   1.0     0.391429     0.105754     0.051915  Biso 1.000000     H
    H   1.0     0.391224     0.605538     0.051961  Biso 1.000000     H
    H   1.0     0.892308     0.106630     0.051874  Biso 1.000000     H
    H   1.0     0.892200     0.606495     0.051898  Biso 1.000000     H
    H   1.0     0.106906     0.392320     0.950889  Biso 1.000000     H
    H   1.0     0.106958     0.892371     0.950856  Biso 1.000000     H
    H   1.0     0.605339     0.390846     0.950968  Biso 1.000000     H
    H   1.0     0.606643     0.892073     0.950874  Biso 1.000000     H
    H   1.0     0.393323     0.107634     0.950976  Biso 1.000000     H
    H   1.0     0.394683     0.608982     0.951061  Biso 1.000000     H
    H   1.0     0.892992     0.107269     0.950901  Biso 1.000000     H
    H   1.0     0.893091     0.607339     0.950946  Biso 1.000000     H
    H   1.0     0.144131     0.141310     0.551898  Biso 1.000000     H
    H   1.0     0.143574     0.641858     0.551910  Biso 1.000000     H
    H   1.0     0.642436     0.142773     0.551878  Biso 1.000000     H
    H   1.0     0.643864     0.641188     0.551843  Biso 1.000000     H
    H   1.0     0.358292     0.356027     0.450955  Biso 1.000000     H
    H   1.0     0.358350     0.856009     0.450937  Biso 1.000000     H
    H   1.0     0.857784     0.356457     0.451019  Biso 1.000000     H
    H   1.0     0.858002     0.856123     0.451044  Biso 1.000000     H
    H   1.0     0.141713     0.143701     0.450930  Biso 1.000000     H
    H   1.0     0.142148     0.643306     0.450928  Biso 1.000000     H
    H   1.0     0.641614     0.143732     0.450914  Biso 1.000000     H
    H   1.0     0.641628     0.643605     0.450881  Biso 1.000000     H
    C   1.0     0.057506     0.443201     0.145542  Biso 1.000000     C
    C   1.0     0.057434     0.943128     0.145516  Biso 1.000000     C
    C   1.0     0.557871     0.443527     0.145576  Biso 1.000000     C
    C   1.0     0.557814     0.943461     0.145537  Biso 1.000000     C
    C   1.0     0.059508     0.441184     0.075608  Biso 1.000000     C
    C   1.0     0.059417     0.941098     0.075579  Biso 1.000000     C
    C   1.0     0.560004     0.441683     0.075646  Biso 1.000000     C
    C   1.0     0.559901     0.941548     0.075603  Biso 1.000000     C
    C   1.0     0.192340     0.193302     0.357245  Biso 1.000000     C
    C   1.0     0.192469     0.693198     0.357241  Biso 1.000000     C
    C   1.0     0.692243     0.193429     0.357236  Biso 1.000000     C
    C   1.0     0.692228     0.693377     0.357222  Biso 1.000000     C
    C   1.0     0.058924     0.440553     0.927143  Biso 1.000000     C
    C   1.0     0.058910     0.940531     0.927102  Biso 1.000000     C
    C   1.0     0.558156     0.439852     0.927221  Biso 1.000000     C
    C   1.0     0.558857     0.940503     0.927132  Biso 1.000000     C
    C   1.0     0.441074     0.059145     0.927195  Biso 1.000000     C
    C   1.0     0.441838     0.559917     0.927278  Biso 1.000000     C
    C   1.0     0.941005     0.059040     0.927117  Biso 1.000000     C
    C   1.0     0.941095     0.559100     0.927164  Biso 1.000000     C
    C   1.0     0.365898     0.367837     0.690854  Biso 1.000000     C
    C   1.0     0.367476     0.866293     0.690815  Biso 1.000000     C
    C   1.0     0.866110     0.367311     0.690896  Biso 1.000000     C
    C   1.0     0.866176     0.867071     0.690889  Biso 1.000000     C
    C   1.0     0.117860     0.383951     0.190767  Biso 1.000000     C
    C   1.0     0.117790     0.883887     0.190749  Biso 1.000000     C
    C   1.0     0.618207     0.384231     0.190780  Biso 1.000000     C
    C   1.0     0.618149     0.884174     0.190753  Biso 1.000000     C
    C   1.0     0.367948     0.365849     0.312027  Biso 1.000000     C
    C   1.0     0.367947     0.865867     0.312010  Biso 1.000000     C
    C   1.0     0.867789     0.366039     0.312059  Biso 1.000000     C
    C   1.0     0.867770     0.866012     0.312069  Biso 1.000000     C
    C   1.0    -0.000018    -0.000122     0.038744  Biso 1.000000     C
    C   1.0     0.000042     0.499914     0.038781  Biso 1.000000     C
    C   1.0     0.500033    -0.000096     0.038783  Biso 1.000000     C
    C   1.0     0.500062     0.499944     0.038835  Biso 1.000000     C
    C   1.0     0.308240     0.309805     0.575671  Biso 1.000000     C
    C   1.0     0.309424     0.808665     0.575667  Biso 1.000000     C
    C   1.0     0.808562     0.309264     0.575723  Biso 1.000000     C
    C   1.0     0.808598     0.809060     0.575714  Biso 1.000000     C
    C   1.0    -0.000023    -0.000138     0.963967  Biso 1.000000     C
    C   1.0     0.000011     0.499870     0.964010  Biso 1.000000     C
    C   1.0     0.500010    -0.000111     0.964016  Biso 1.000000     C
    C   1.0     0.500027     0.499924     0.964083  Biso 1.000000     C
    C   1.0     0.134054     0.131828     0.690823  Biso 1.000000     C
    C   1.0     0.133944     0.632050     0.690853  Biso 1.000000     C
    C   1.0     0.632664     0.132886     0.690764  Biso 1.000000     C
    C   1.0     0.633988     0.631470     0.690783  Biso 1.000000     C
    C   1.0     0.249891     0.249955     0.538823  Biso 1.000000     C
    C   1.0     0.250376     0.749508     0.538818  Biso 1.000000     C
    C   1.0     0.749568     0.250087     0.538846  Biso 1.000000     C
    C   1.0     0.749940     0.749566     0.538829  Biso 1.000000     C
    C   1.0     0.382664     0.116380     0.812048  Biso 1.000000     C
    C   1.0     0.384232     0.617965     0.812160  Biso 1.000000     C
    C   1.0     0.883420     0.116946     0.811887  Biso 1.000000     C
    C   1.0     0.883432     0.616930     0.811954  Biso 1.000000     C
    C   1.0     0.309637     0.308457     0.427183  Biso 1.000000     C
    C   1.0     0.309771     0.808353     0.427172  Biso 1.000000     C
    C   1.0     0.809281     0.308745     0.427237  Biso 1.000000     C
    C   1.0     0.809407     0.808525     0.427239  Biso 1.000000     C
    C   1.0     0.442837     0.056935     0.857260  Biso 1.000000     C
    C   1.0     0.443669     0.557762     0.857348  Biso 1.000000     C
    C   1.0     0.943004     0.057002     0.857178  Biso 1.000000     C
    C   1.0     0.943058     0.557029     0.857228  Biso 1.000000     C
    C   1.0     0.116249     0.382153     0.811956  Biso 1.000000     C
    C   1.0     0.116278     0.882144     0.811906  Biso 1.000000     C
    C   1.0     0.615685     0.381628     0.812076  Biso 1.000000     C
    C   1.0     0.617200     0.883129     0.811951  Biso 1.000000     C
    C   1.0     0.249957     0.249919     0.464029  Biso 1.000000     C
    C   1.0     0.250295     0.749614     0.464023  Biso 1.000000     C
    C   1.0     0.749672     0.250087     0.464052  Biso 1.000000     C
    C   1.0     0.749883     0.749762     0.464040  Biso 1.000000     C
    C   1.0     0.442264     0.056432     0.145574  Biso 1.000000     C
    C   1.0     0.442211     0.556374     0.145620  Biso 1.000000     C
    C   1.0     0.942547     0.056714     0.145547  Biso 1.000000     C
    C   1.0     0.942533     0.556676     0.145574  Biso 1.000000     C
    C   1.0     0.191528     0.190117     0.575675  Biso 1.000000     C
    C   1.0     0.191509     0.690157     0.575670  Biso 1.000000     C
    C   1.0     0.690512     0.190902     0.575674  Biso 1.000000     C
    C   1.0     0.691477     0.689774     0.575640  Biso 1.000000     C
    C   1.0     0.190325     0.191337     0.427178  Biso 1.000000     C
    C   1.0     0.190615     0.691084     0.427173  Biso 1.000000     C
    C   1.0     0.690126     0.191474     0.427166  Biso 1.000000     C
    C   1.0     0.690167     0.691334     0.427148  Biso 1.000000     C
    C   1.0     0.381903     0.115767     0.190809  Biso 1.000000     C
    C   1.0     0.381851     0.615721     0.190843  Biso 1.000000     C
    C   1.0     0.882190     0.116031     0.190794  Biso 1.000000     C
    C   1.0     0.882147     0.615975     0.190811  Biso 1.000000     C
    C   1.0     0.193424     0.192158     0.645607  Biso 1.000000     C
    C   1.0     0.193479     0.692143     0.645604  Biso 1.000000     C
    C   1.0     0.692510     0.192803     0.645611  Biso 1.000000     C
    C   1.0     0.693415     0.691717     0.645575  Biso 1.000000     C
    C   1.0     0.306401     0.307684     0.645604  Biso 1.000000     C
    C   1.0     0.307487     0.806622     0.645599  Biso 1.000000     C
    C   1.0     0.806549     0.307253     0.645651  Biso 1.000000     C
    C   1.0     0.806668     0.806953     0.645640  Biso 1.000000     C
    C   1.0     0.307597     0.306538     0.357251  Biso 1.000000     C
    C   1.0     0.307648     0.806514     0.357240  Biso 1.000000     C
    C   1.0     0.807422     0.306746     0.357300  Biso 1.000000     C
    C   1.0     0.807443     0.806660     0.357302  Biso 1.000000     C
    C   1.0     0.440218     0.058317     0.075647  Biso 1.000000     C
    C   1.0     0.440129     0.558225     0.075698  Biso 1.000000     C
    C   1.0     0.940643     0.058742     0.075614  Biso 1.000000     C
    C   1.0     0.940588     0.558666     0.075644  Biso 1.000000     C
    C   1.0     0.056902     0.442435     0.857213  Biso 1.000000     C
    C   1.0     0.056874     0.942387     0.857169  Biso 1.000000     C
    C   1.0     0.556271     0.441903     0.857298  Biso 1.000000     C
    C   1.0     0.557028     0.942615     0.857201  Biso 1.000000     C
    C   1.0     0.132053     0.133958     0.312001  Biso 1.000000     C
    C   1.0     0.132105     0.633925     0.312003  Biso 1.000000     C
    C   1.0     0.631915     0.134130     0.312000  Biso 1.000000     C
    C   1.0     0.631849     0.634141     0.311986  Biso 1.000000     C
    N   1.0    -0.000033    -0.000048     0.178777  Biso 1.000000     N
    N   1.0    -0.000015     0.499945     0.178804  Biso 1.000000     N
    N   1.0     0.500022    -0.000031     0.178796  Biso 1.000000     N
    N   1.0     0.500022     0.499958     0.178834  Biso 1.000000     N
    N   1.0     0.249943     0.249894     0.678842  Biso 1.000000     N
    N   1.0     0.250407     0.749464     0.678843  Biso 1.000000     N
    N   1.0     0.749613     0.249920     0.678873  Biso 1.000000     N
    N   1.0     0.750034     0.749313     0.678842  Biso 1.000000     N
    N   1.0     0.249962     0.249935     0.324005  Biso 1.000000     N
    N   1.0     0.249992     0.749926     0.323999  Biso 1.000000     N
    N   1.0     0.749859     0.250095     0.324028  Biso 1.000000     N
    N   1.0     0.749809     0.750088     0.324022  Biso 1.000000     N
    N   1.0    -0.000079    -0.000338     0.823947  Biso 1.000000     N
    N   1.0    -0.000016     0.499711     0.823991  Biso 1.000000     N
    N   1.0     0.499922    -0.000232     0.823994  Biso 1.000000     N
    N   1.0     0.499952     0.499805     0.824082  Biso 1.000000     N
    O   1.0     0.109062     0.394273     0.253235  Biso 1.000000     O
    O   1.0     0.109015     0.894244     0.253216  Biso 1.000000     O
    O   1.0     0.609166     0.394317     0.253252  Biso 1.000000     O
    O   1.0     0.609147     0.894310     0.253223  Biso 1.000000     O
    O   1.0     0.173166     0.327670     0.160952  Biso 1.000000     O
    O   1.0     0.173107     0.827613     0.160940  Biso 1.000000     O
    O   1.0     0.673702     0.328121     0.160964  Biso 1.000000     O
    O   1.0     0.673632     0.828044     0.160945  Biso 1.000000     O
    O   1.0     0.078123     0.076166     0.660995  Biso 1.000000     O
    O   1.0     0.077817     0.576591     0.661039  Biso 1.000000     O
    O   1.0     0.576690     0.077396     0.660832  Biso 1.000000     O
    O   1.0     0.578433     0.575446     0.660937  Biso 1.000000     O
    O   1.0     0.140918     0.144185     0.249540  Biso 1.000000     O
    O   1.0     0.140919     0.644184     0.249542  Biso 1.000000     O
    O   1.0     0.640849     0.144313     0.249538  Biso 1.000000     O
    O   1.0     0.640821     0.644289     0.249526  Biso 1.000000     O
    O   1.0     0.172278     0.326675     0.841792  Biso 1.000000     O
    O   1.0     0.172494     0.826827     0.841725  Biso 1.000000     O
    O   1.0     0.671594     0.325993     0.841903  Biso 1.000000     O
    O   1.0     0.672159     0.826580     0.841787  Biso 1.000000     O
    O   1.0     0.356271     0.358367     0.753332  Biso 1.000000     O
    O   1.0     0.358470     0.856298     0.753291  Biso 1.000000     O
    O   1.0     0.855907     0.358454     0.753379  Biso 1.000000     O
    O   1.0     0.856176     0.857982     0.753371  Biso 1.000000     O
    O   1.0     0.359113     0.355639     0.249557  Biso 1.000000     O
    O   1.0     0.359107     0.855650     0.249540  Biso 1.000000     O
    O   1.0     0.859038     0.355749     0.249592  Biso 1.000000     O
    O   1.0     0.859016     0.855727     0.249599  Biso 1.000000     O
    O   1.0     0.327548     0.172825     0.841882  Biso 1.000000     O
    O   1.0     0.328067     0.673357     0.842017  Biso 1.000000     O
    O   1.0     0.827610     0.172766     0.841664  Biso 1.000000     O
    O   1.0     0.827653     0.672757     0.841741  Biso 1.000000     O
    O   1.0     0.326486     0.171879     0.160987  Biso 1.000000     O
    O   1.0     0.326436     0.671825     0.161005  Biso 1.000000     O
    O   1.0     0.826960     0.172314     0.160978  Biso 1.000000     O
    O   1.0     0.826921     0.672259     0.160989  Biso 1.000000     O
    O   1.0     0.106113     0.391054     0.749493  Biso 1.000000     O
    O   1.0     0.106069     0.890964     0.749449  Biso 1.000000     O
    O   1.0     0.605786     0.390761     0.749614  Biso 1.000000     O
    O   1.0     0.608720     0.893638     0.749493  Biso 1.000000     O
    O   1.0     0.421580     0.423740     0.661050  Biso 1.000000     O
    O   1.0     0.422934     0.922350     0.660965  Biso 1.000000     O
    O   1.0     0.922302     0.422633     0.661055  Biso 1.000000     O
    O   1.0     0.922187     0.922591     0.661065  Biso 1.000000     O
    O   1.0     0.143978     0.140970     0.753284  Biso 1.000000     O
    O   1.0     0.144082     0.641010     0.753316  Biso 1.000000     O
    O   1.0     0.642289     0.142057     0.753245  Biso 1.000000     O
    O   1.0     0.643516     0.641006     0.753246  Biso 1.000000     O
    O   1.0     0.390834     0.105701     0.253273  Biso 1.000000     O
    O   1.0     0.390805     0.605696     0.253306  Biso 1.000000     O
    O   1.0     0.890897     0.105737     0.253254  Biso 1.000000     O
    O   1.0     0.890870     0.605706     0.253272  Biso 1.000000     O
    O   1.0     0.391319     0.105974     0.749576  Biso 1.000000     O
    O   1.0     0.394322     0.609004     0.749681  Biso 1.000000     O
    O   1.0     0.893161     0.107419     0.749416  Biso 1.000000     O
    O   1.0     0.893103     0.607335     0.749480  Biso 1.000000     O
    O   1.0     0.076629     0.077811     0.341817  Biso 1.000000     O
    O   1.0     0.076690     0.577779     0.341827  Biso 1.000000     O
    O   1.0     0.576533     0.077930     0.341806  Biso 1.000000     O
    O   1.0     0.576446     0.577967     0.341802  Biso 1.000000     O
    O   1.0     0.423238     0.422117     0.341841  Biso 1.000000     O
    O   1.0     0.423245     0.922130     0.341822  Biso 1.000000     O
    O   1.0     0.923152     0.422231     0.341873  Biso 1.000000     O
    O   1.0     0.923120     0.922221     0.341875  Biso 1.000000     O
   Zn   1.0     0.250035     0.249813     0.780822  Biso 1.000000    Zn
   Zn   1.0     0.250238     0.749802     0.780828  Biso 1.000000    Zn
   Zn   1.0     0.749900     0.249887     0.780825  Biso 1.000000    Zn
   Zn   1.0     0.750046     0.749872     0.780815  Biso 1.000000    Zn
   Zn   1.0    -0.000077    -0.000242     0.721950  Biso 1.000000    Zn
   Zn   1.0    -0.000071     0.499813     0.721988  Biso 1.000000    Zn
   Zn   1.0     0.499958    -0.000099     0.722009  Biso 1.000000    Zn
   Zn   1.0     0.499960     0.499851     0.722107  Biso 1.000000    Zn
   Zn   1.0    -0.000058    -0.000041     0.280793  Biso 1.000000    Zn
   Zn   1.0    -0.000040     0.499961     0.280805  Biso 1.000000    Zn
   Zn   1.0     0.499970    -0.000021     0.280783  Biso 1.000000    Zn
   Zn   1.0     0.499960     0.499957     0.280798  Biso 1.000000    Zn
   Zn   1.0     0.249978     0.249977     0.222002  Biso 1.000000    Zn
   Zn   1.0     0.249966     0.749974     0.222000  Biso 1.000000    Zn
   Zn   1.0     0.750041     0.250034     0.222020  Biso 1.000000    Zn
   Zn   1.0     0.750031     0.750029     0.222015  Biso 1.000000    Zn
