#======================================================================

# CRYSTAL DATA

#----------------------------------------------------------------------

data_VESTA_phase_1


_pd_phase_name                         MOF
_cell_length_a                         16.20200
_cell_length_b                         17.13400
_cell_length_c                         12.31600
_cell_angle_alpha                      89.94100
_cell_angle_beta                       89.94100
_cell_angle_gamma                      90.14700
_symmetry_space_group_name_H-M         "P 1"
_symmetry_Int_Tables_number            1

loop_
_symmetry_equiv_pos_as_xyz
   "x, y, z"

loop_
   _atom_site_label
   _atom_site_occupancy
   _atom_site_fract_x
   _atom_site_fract_y
   _atom_site_fract_z
   _atom_site_adp_type
   _atom_site_B_iso_or_equiv
   _atom_site_type_symbol
    C   1.0     0.190252     0.587747     0.561226  Biso 1.000000     C
    C   1.0     0.690258     0.587752     0.561226  Biso 1.000000     C
    C   1.0     0.421622     0.807646     0.595561  Biso 1.000000     C
    C   1.0     0.921634     0.807642     0.595546  Biso 1.000000     C
    C   1.0     0.371941     0.528598     0.425831  Biso 1.000000     C
    C   1.0     0.871945     0.528597     0.425825  Biso 1.000000     C
    C   1.0     0.438233     0.577564     0.790132  Biso 1.000000     C
    C   1.0     0.938241     0.577557     0.790124  Biso 1.000000     C
    C   1.0     0.310801     0.411800     0.061680  Biso 1.000000     C
    C   1.0     0.810808     0.411800     0.061678  Biso 1.000000     C
    C   1.0     0.079714     0.192597     0.096220  Biso 1.000000     C
    C   1.0     0.579720     0.192593     0.096227  Biso 1.000000     C
    C   1.0     0.129172     0.471242     0.926021  Biso 1.000000     C
    C   1.0     0.629181     0.471237     0.926017  Biso 1.000000     C
    C   1.0     0.062750     0.421904     0.290759  Biso 1.000000     C
    C   1.0     0.562755     0.421906     0.290757  Biso 1.000000     C
    C   1.0     0.060288     0.000000     0.562654  Biso 1.000000     C
    C   1.0     0.560293     0.000000     0.562657  Biso 1.000000     C
    C   1.0     0.329589     0.307407     0.595655  Biso 1.000000     C
    C   1.0     0.829590     0.307406     0.595640  Biso 1.000000     C
    C   1.0     0.378542     0.028623     0.426951  Biso 1.000000     C
    C   1.0     0.878554     0.028625     0.426942  Biso 1.000000     C
    C   1.0     0.312082     0.077184     0.791367  Biso 1.000000     C
    C   1.0     0.812091     0.077179     0.791358  Biso 1.000000     C
    C   1.0     0.439022    -0.087551     0.062796  Biso 1.000000     C
    C   1.0     0.939030    -0.087551     0.062793  Biso 1.000000     C
    C   1.0     0.170907     0.692067     0.095884  Biso 1.000000     C
    C   1.0     0.670910     0.692070     0.095882  Biso 1.000000     C
    C   1.0     0.120816     0.971491     0.927156  Biso 1.000000     C
    C   1.0     0.620826     0.971497     0.927164  Biso 1.000000     C
    C   1.0     0.186830     0.922170     0.291663  Biso 1.000000     C
    C   1.0     0.686836     0.922165     0.291668  Biso 1.000000     C
    N   1.0     0.221704     0.541004     0.617782  Biso 1.000000     N
    N   1.0     0.721711     0.541008     0.617781  Biso 1.000000     N
    N   1.0     0.437416     0.854478     0.662651  Biso 1.000000     N
    N   1.0     0.937429     0.854475     0.662636  Biso 1.000000     N
    N   1.0     0.322599     0.547093     0.360211  Biso 1.000000     N
    N   1.0     0.822603     0.547095     0.360206  Biso 1.000000     N
    N   1.0     0.383844     0.532554     0.804303  Biso 1.000000     N
    N   1.0     0.883854     0.532546     0.804295  Biso 1.000000     N
    N   1.0     0.279202     0.458587     0.117976  Biso 1.000000     N
    N   1.0     0.779208     0.458587     0.117972  Biso 1.000000     N
    N   1.0     0.063546     0.145574     0.163078  Biso 1.000000     N
    N   1.0     0.563552     0.145572     0.163087  Biso 1.000000     N
    N   1.0     0.178572     0.452558     0.860497  Biso 1.000000     N
    N   1.0     0.678579     0.452555     0.860491  Biso 1.000000     N
    N   1.0     0.117289     0.466704     0.304948  Biso 1.000000     N
    N   1.0     0.617294     0.466707     0.304945  Biso 1.000000     N
    N   1.0     0.028360     0.000000     0.619183  Biso 1.000000     N
    N   1.0     0.528366     0.000000     0.619190  Biso 1.000000     N
    N   1.0     0.313235     0.354534     0.662044  Biso 1.000000     N
    N   1.0     0.813235     0.354533     0.662031  Biso 1.000000     N
    N   1.0     0.428025     0.047474     0.361444  Biso 1.000000     N
    N   1.0     0.928037     0.047478     0.361436  Biso 1.000000     N
    N   1.0     0.366035     0.000000     0.805498  Biso 1.000000     N
    N   1.0     0.866043     0.000000     0.805487  Biso 1.000000     N
    N   1.0     0.470725    -0.040699     0.119048  Biso 1.000000     N
    N   1.0     0.970733    -0.040697     0.119041  Biso 1.000000     N
    N   1.0     0.187554     0.644958     0.162258  Biso 1.000000     N
    N   1.0     0.687557     0.644959     0.162254  Biso 1.000000     N
    N   1.0     0.071467     0.952925     0.861512  Biso 1.000000     N
    N   1.0     0.571476     0.952931     0.861521  Biso 1.000000     N
    N   1.0     0.132742    -0.032779     0.305845  Biso 1.000000     N
    N   1.0     0.632748    -0.032785     0.305851  Biso 1.000000     N
    S   1.0     0.148588     0.653050     0.479912  Biso 1.000000     S
    S   1.0     0.648594     0.653057     0.479915  Biso 1.000000     S
    S   1.0     0.439801     0.501207     0.516779  Biso 1.000000     S
    S   1.0     0.939805     0.501204     0.516772  Biso 1.000000     S
    S   1.0     0.514640     0.639423     0.773619  Biso 1.000000     S
    S   1.0     0.000000     0.639418     0.773612  Biso 1.000000     S
    S   1.0     0.396207     0.743613     0.502015  Biso 1.000000     S
    S   1.0     0.896219     0.743608     0.502001  Biso 1.000000     S
    S   1.0     0.352704     0.346444    -0.019272  Biso 1.000000     S
    S   1.0     0.852712     0.346443    -0.019271  Biso 1.000000     S
    S   1.0     0.061219     0.498823     0.016843  Biso 1.000000     S
    S   1.0     0.561228     0.498819     0.016840  Biso 1.000000     S
    S   1.0    -0.013838     0.360296     0.274274  Biso 1.000000     S
    S   1.0     0.486168     0.360296     0.274274  Biso 1.000000     S
    S   1.0     0.105632     0.256924     0.003055  Biso 1.000000     S
    S   1.0     0.605638     0.256917     0.003058  Biso 1.000000     S
    S   1.0     0.102649     0.153412     0.481406  Biso 1.000000     S
    S   1.0     0.602654     0.153406     0.481403  Biso 1.000000     S
    S   1.0     0.310459     0.000000     0.517778  Biso 1.000000     S
    S   1.0     0.810472     0.000000     0.517769  Biso 1.000000     S
    S   1.0     0.236246     0.139271     0.774895  Biso 1.000000     S
    S   1.0     0.736256     0.139267     0.774887  Biso 1.000000     S
    S   1.0     0.355729     0.242945     0.503128  Biso 1.000000     S
    S   1.0     0.855730     0.242945     0.503113  Biso 1.000000     S
    S   1.0     0.397019     0.846999    -0.018119  Biso 1.000000     S
    S   1.0     0.897025     0.846996    -0.018118  Biso 1.000000     S
    S   1.0     0.188681    -0.001007     0.018147  Biso 1.000000     S
    S   1.0     0.688693    -0.001003     0.018153  Biso 1.000000     S
    S   1.0     0.262798     0.860230     0.275141  Biso 1.000000     S
    S   1.0     0.762806     0.860227     0.275144  Biso 1.000000     S
    S   1.0     0.144409     0.756490     0.003368  Biso 1.000000     S
    S   1.0     0.644411     0.756495     0.003370  Biso 1.000000     S
   Cd   1.0     0.279878     0.464203     0.742122  Biso 1.000000    Cd
   Cd   1.0     0.779883     0.464201     0.742114  Biso 1.000000    Cd
   Cd   1.0     0.221120     0.535304     0.242456  Biso 1.000000    Cd
   Cd   1.0     0.721125     0.535306     0.242450  Biso 1.000000    Cd
   Cd   1.0    -0.029846     0.964195     0.743421  Biso 1.000000    Cd
   Cd   1.0     0.470161     0.964198     0.743434  Biso 1.000000    Cd
   Cd   1.0     0.529452     0.035900     0.243352  Biso 1.000000    Cd
   Cd   1.0     0.000000     0.035903     0.243342  Biso 1.000000    Cd
   Hg   1.0     0.501795     0.638778     0.560579  Biso 1.000000    Hg
   Hg   1.0     0.000000     0.638772     0.560571  Biso 1.000000    Hg
   Hg   1.0    -0.000699     0.361235     0.061226  Biso 1.000000    Hg
   Hg   1.0     0.499310     0.361232     0.061227  Biso 1.000000    Hg
   Hg   1.0     0.249202     0.138356     0.561815  Biso 1.000000    Hg
   Hg   1.0     0.749209     0.138352     0.561808  Biso 1.000000    Hg
   Hg   1.0     0.250191     0.861577     0.062031  Biso 1.000000    Hg
   Hg   1.0     0.750199     0.861578     0.062034  Biso 1.000000    Hg
