#======================================================================

# CRYSTAL DATA

#----------------------------------------------------------------------

data_VESTA_phase_1


_pd_phase_name                         MOF
_cell_length_a                         19.11800
_cell_length_b                         12.45800
_cell_length_c                         20.50600
_cell_angle_alpha                      74.26100
_cell_angle_beta                       76.30900
_cell_angle_gamma                      67.36700
_symmetry_space_group_name_H-M         "P 1"
_symmetry_Int_Tables_number            1

loop_
_symmetry_equiv_pos_as_xyz
   "x, y, z"

loop_
   _atom_site_label
   _atom_site_occupancy
   _atom_site_fract_x
   _atom_site_fract_y
   _atom_site_fract_z
   _atom_site_adp_type
   _atom_site_B_iso_or_equiv
   _atom_site_type_symbol
    H   1.0     0.274226     0.824540     0.836522  Biso 1.000000     H
    H   1.0     0.774244     0.824547     0.836522  Biso 1.000000     H
    H   1.0     0.446698     0.496555     0.793467  Biso 1.000000     H
    H   1.0     0.946713     0.496558     0.793468  Biso 1.000000     H
    H   1.0     0.463136     0.650098     0.951087  Biso 1.000000     H
    H   1.0     0.963151     0.650096     0.951091  Biso 1.000000     H
    H   1.0     0.327869     0.930786     0.902574  Biso 1.000000     H
    H   1.0     0.827886     0.930788     0.902577  Biso 1.000000     H
    H   1.0     0.374780     0.834070     0.972606  Biso 1.000000     H
    H   1.0     0.874796     0.834070     0.972609  Biso 1.000000     H
    H   1.0     0.289225     0.713666     0.069446  Biso 1.000000     H
    H   1.0     0.789240     0.713669     0.069449  Biso 1.000000     H
    H   1.0     0.131880     0.791558     0.107250  Biso 1.000000     H
    H   1.0     0.631895     0.791560     0.107252  Biso 1.000000     H
    H   1.0     0.186744     0.000000     0.915925  Biso 1.000000     H
    H   1.0     0.686760     0.000000     0.915926  Biso 1.000000     H
    H   1.0     0.264875     0.749668     0.747692  Biso 1.000000     H
    H   1.0     0.764894     0.749678     0.747691  Biso 1.000000     H
    H   1.0     0.294129     0.592436     0.762993  Biso 1.000000     H
    H   1.0     0.794144     0.592447     0.762992  Biso 1.000000     H
    H   1.0     0.390816     0.826507     0.674535  Biso 1.000000     H
    H   1.0     0.890836     0.826512     0.674534  Biso 1.000000     H
    H   1.0     0.485161     0.747275     0.558490  Biso 1.000000     H
    H   1.0     0.985180     0.747276     0.558489  Biso 1.000000     H
    H   1.0     0.368229     0.507459     0.662710  Biso 1.000000     H
    H   1.0     0.868243     0.507468     0.662710  Biso 1.000000     H
    H   1.0     0.051861     0.463987     0.936683  Biso 1.000000     H
    H   1.0     0.551875     0.463994     0.936678  Biso 1.000000     H
    H   1.0     0.085118     0.481801     0.847683  Biso 1.000000     H
    H   1.0     0.585128     0.481805     0.847677  Biso 1.000000     H
    H   1.0     0.115682     0.316099     0.793212  Biso 1.000000     H
    H   1.0     0.615703     0.316093     0.793215  Biso 1.000000     H
    H   1.0     0.092248     0.097318     0.835136  Biso 1.000000     H
    H   1.0     0.592270     0.097311     0.835141  Biso 1.000000     H
    H   1.0     0.468216     0.307927     0.982738  Biso 1.000000     H
    H   1.0     0.968231     0.307921     0.982741  Biso 1.000000     H
    H   1.0     0.103863     0.675382     0.664034  Biso 1.000000     H
    H   1.0     0.603882     0.675385     0.664032  Biso 1.000000     H
    H   1.0     0.091493     0.000000     0.706742  Biso 1.000000     H
    H   1.0     0.591515     0.000000     0.706742  Biso 1.000000     H
    H   1.0     0.263544     0.848942     0.548410  Biso 1.000000     H
    H   1.0     0.763564     0.848944     0.548409  Biso 1.000000     H
    H   1.0     0.244056     0.568693     0.597118  Biso 1.000000     H
    H   1.0     0.744075     0.568695     0.597116  Biso 1.000000     H
    H   1.0     0.277778     0.665590     0.527088  Biso 1.000000     H
    H   1.0     0.777795     0.665593     0.527085  Biso 1.000000     H
    H   1.0     0.180445     0.786612     0.430677  Biso 1.000000     H
    H   1.0     0.680464     0.786609     0.430675  Biso 1.000000     H
    H   1.0     0.081481     0.708438     0.392949  Biso 1.000000     H
    H   1.0     0.581495     0.708440     0.392951  Biso 1.000000     H
    H   1.0     0.144737     0.498785     0.584013  Biso 1.000000     H
    H   1.0     0.644750     0.498792     0.584016  Biso 1.000000     H
    H   1.0     0.012779     0.750372     0.753521  Biso 1.000000     H
    H   1.0     0.512799     0.750373     0.753519  Biso 1.000000     H
    H   1.0     0.471312     0.907688     0.738319  Biso 1.000000     H
    H   1.0     0.971318     0.907687     0.738321  Biso 1.000000     H
    H   1.0     0.140904     0.672513     0.825606  Biso 1.000000     H
    H   1.0     0.640924     0.672520     0.825604  Biso 1.000000     H
    H   1.0     0.138633     0.751807     0.941058  Biso 1.000000     H
    H   1.0     0.638649     0.751813     0.941059  Biso 1.000000     H
    H   1.0     0.453870     0.993085     0.837988  Biso 1.000000     H
    H   1.0     0.953881     0.993086     0.837987  Biso 1.000000     H
    H   1.0     0.252259     0.034909     0.562505  Biso 1.000000     H
    H   1.0     0.752280     0.034910     0.562506  Biso 1.000000     H
    H   1.0     0.250046     0.017257     0.651328  Biso 1.000000     H
    H   1.0     0.750065     0.017260     0.651328  Biso 1.000000     H
    H   1.0     0.170593     0.182928     0.705946  Biso 1.000000     H
    H   1.0     0.670613     0.182934     0.705944  Biso 1.000000     H
    H   1.0     0.058420     0.401783     0.664632  Biso 1.000000     H
    H   1.0     0.558437     0.401786     0.664628  Biso 1.000000     H
    H   1.0     0.113221     0.191278     0.517282  Biso 1.000000     H
    H   1.0     0.613240     0.191275     0.517282  Biso 1.000000     H
    H   1.0     0.225810     0.175461     0.163533  Biso 1.000000     H
    H   1.0     0.725827     0.175469     0.163532  Biso 1.000000     H
    H   1.0     0.053340     0.503456     0.206577  Biso 1.000000     H
    H   1.0     0.553354     0.503460     0.206578  Biso 1.000000     H
    H   1.0     0.036909     0.349906     0.048957  Biso 1.000000     H
    H   1.0     0.536923     0.349904     0.048960  Biso 1.000000     H
    H   1.0     0.172171     0.069213     0.097479  Biso 1.000000     H
    H   1.0     0.672187     0.069216     0.097482  Biso 1.000000     H
    H   1.0     0.125259     0.165925     0.027448  Biso 1.000000     H
    H   1.0     0.625275     0.165926     0.027451  Biso 1.000000     H
    H   1.0     0.210808     0.286327     0.930604  Biso 1.000000     H
    H   1.0     0.710823     0.286330     0.930606  Biso 1.000000     H
    H   1.0     0.368153     0.208442     0.892794  Biso 1.000000     H
    H   1.0     0.868168     0.208443     0.892795  Biso 1.000000     H
    H   1.0     0.313299    -0.000747     0.084125  Biso 1.000000     H
    H   1.0     0.813315    -0.000747     0.084126  Biso 1.000000     H
    H   1.0     0.235157     0.250343     0.252361  Biso 1.000000     H
    H   1.0     0.735175     0.250354     0.252359  Biso 1.000000     H
    H   1.0     0.205899     0.407576     0.237060  Biso 1.000000     H
    H   1.0     0.705914     0.407587     0.237059  Biso 1.000000     H
    H   1.0     0.109213     0.173502     0.325514  Biso 1.000000     H
    H   1.0     0.609234     0.173506     0.325513  Biso 1.000000     H
    H   1.0     0.014869     0.252729     0.441561  Biso 1.000000     H
    H   1.0     0.514889     0.252730     0.441560  Biso 1.000000     H
    H   1.0     0.131798     0.492549     0.337342  Biso 1.000000     H
    H   1.0     0.631811     0.492558     0.337341  Biso 1.000000     H
    H   1.0     0.448188     0.536017     0.063360  Biso 1.000000     H
    H   1.0     0.948202     0.536023     0.063355  Biso 1.000000     H
    H   1.0     0.414926     0.518207     0.152359  Biso 1.000000     H
    H   1.0     0.914936     0.518210     0.152354  Biso 1.000000     H
    H   1.0     0.384355     0.683914     0.206828  Biso 1.000000     H
    H   1.0     0.884375     0.683908     0.206831  Biso 1.000000     H
    H   1.0     0.407792     0.902692     0.164906  Biso 1.000000     H
    H   1.0     0.907813     0.902686     0.164910  Biso 1.000000     H
    H   1.0     0.031827     0.692087     0.017303  Biso 1.000000     H
    H   1.0     0.531842     0.692083     0.017306  Biso 1.000000     H
    H   1.0     0.396166     0.324642     0.335999  Biso 1.000000     H
    H   1.0     0.896185     0.324643     0.335998  Biso 1.000000     H
    H   1.0     0.408545    -0.002781     0.293315  Biso 1.000000     H
    H   1.0     0.908566    -0.002781     0.293316  Biso 1.000000     H
    H   1.0     0.236492     0.151080     0.451639  Biso 1.000000     H
    H   1.0     0.736512     0.151081     0.451638  Biso 1.000000     H
    H   1.0     0.255987     0.431336     0.402913  Biso 1.000000     H
    H   1.0     0.756006     0.431338     0.402911  Biso 1.000000     H
    H   1.0     0.222250     0.334454     0.472942  Biso 1.000000     H
    H   1.0     0.722267     0.334456     0.472939  Biso 1.000000     H
    H   1.0     0.319581     0.213405     0.569357  Biso 1.000000     H
    H   1.0     0.819598     0.213403     0.569356  Biso 1.000000     H
    H   1.0     0.418547     0.291560     0.607096  Biso 1.000000     H
    H   1.0     0.918559     0.291563     0.607099  Biso 1.000000     H
    H   1.0     0.355302     0.501236     0.416034  Biso 1.000000     H
    H   1.0     0.855316     0.501242     0.416036  Biso 1.000000     H
    H   1.0     0.487258     0.249634     0.246522  Biso 1.000000     H
    H   1.0     0.987278     0.249634     0.246521  Biso 1.000000     H
    H   1.0     0.028734     0.092319     0.261720  Biso 1.000000     H
    H   1.0     0.528740     0.092319     0.261721  Biso 1.000000     H
    H   1.0     0.359129     0.327498     0.174436  Biso 1.000000     H
    H   1.0     0.859150     0.327504     0.174435  Biso 1.000000     H
    H   1.0     0.361403     0.248207     0.058983  Biso 1.000000     H
    H   1.0     0.861419     0.248212     0.058983  Biso 1.000000     H
    H   1.0     0.046166     0.006921     0.162056  Biso 1.000000     H
    H   1.0     0.546177     0.006924     0.162055  Biso 1.000000     H
    H   1.0     0.247786     0.965098     0.437560  Biso 1.000000     H
    H   1.0     0.747807     0.965099     0.437560  Biso 1.000000     H
    H   1.0     0.249981     0.982753     0.348740  Biso 1.000000     H
    H   1.0     0.750000     0.982756     0.348740  Biso 1.000000     H
    H   1.0     0.329444     0.817100     0.294103  Biso 1.000000     H
    H   1.0     0.829462     0.817105     0.294100  Biso 1.000000     H
    H   1.0     0.441617     0.598240     0.335411  Biso 1.000000     H
    H   1.0     0.941634     0.598242     0.335408  Biso 1.000000     H
    H   1.0     0.386813     0.808716     0.482775  Biso 1.000000     H
    H   1.0     0.886832     0.808714     0.482774  Biso 1.000000     H
    C   1.0     0.364267     0.746039     0.899770  Biso 1.000000     C
    C   1.0     0.864283     0.746041     0.899772  Biso 1.000000     C
    C   1.0     0.326055     0.749501     0.848301  Biso 1.000000     C
    C   1.0     0.826073     0.749508     0.848301  Biso 1.000000     C
    C   1.0     0.355184     0.660130     0.810076  Biso 1.000000     C
    C   1.0     0.855201     0.660136     0.810076  Biso 1.000000     C
    C   1.0     0.423307     0.565997     0.823603  Biso 1.000000     C
    C   1.0     0.923323     0.566002     0.823604  Biso 1.000000     C
    C   1.0     0.462380     0.561359     0.874469  Biso 1.000000     C
    C   1.0     0.962394     0.561359     0.874472  Biso 1.000000     C
    C   1.0     0.432172     0.651876     0.912198  Biso 1.000000     C
    C   1.0     0.932188     0.651877     0.912200  Biso 1.000000     C
    C   1.0     0.334396     0.845600     0.938995  Biso 1.000000     C
    C   1.0     0.834412     0.845601     0.938998  Biso 1.000000     C
    C   1.0     0.244294     0.783848     0.043427  Biso 1.000000     C
    C   1.0     0.744309     0.783851     0.043429  Biso 1.000000     C
    C   1.0     0.166124     0.823758     0.061599  Biso 1.000000     C
    C   1.0     0.666139     0.823760     0.061600  Biso 1.000000     C
    C   1.0     0.190897     0.935053     0.963395  Biso 1.000000     C
    C   1.0     0.690913     0.935054     0.963396  Biso 1.000000     C
    C   1.0     0.314781     0.667449     0.752889  Biso 1.000000     C
    C   1.0     0.814798     0.667458     0.752888  Biso 1.000000     C
    C   1.0     0.401762     0.748342     0.654475  Biso 1.000000     C
    C   1.0     0.901781     0.748347     0.654474  Biso 1.000000     C
    C   1.0     0.447005     0.708782     0.596965  Biso 1.000000     C
    C   1.0     0.947024     0.708785     0.596964  Biso 1.000000     C
    C   1.0     0.389755     0.580806     0.648708  Biso 1.000000     C
    C   1.0     0.889771     0.580813     0.648708  Biso 1.000000     C
    C   1.0     0.038223     0.464878     0.887323  Biso 1.000000     C
    C   1.0     0.538235     0.464881     0.887319  Biso 1.000000     C
    C   1.0     0.082158     0.279532     0.837862  Biso 1.000000     C
    C   1.0     0.582177     0.279529     0.837864  Biso 1.000000     C
    C   1.0     0.069314     0.173331     0.859552  Biso 1.000000     C
    C   1.0     0.569333     0.173327     0.859554  Biso 1.000000     C
    C   1.0     0.004973     0.278113     0.937383  Biso 1.000000     C
    C   1.0     0.504985     0.278116     0.937381  Biso 1.000000     C
    C   1.0     0.186639     0.753465     0.600250  Biso 1.000000     C
    C   1.0     0.686658     0.753467     0.600249  Biso 1.000000     C
    C   1.0     0.124300     0.750171     0.652070  Biso 1.000000     C
    C   1.0     0.624320     0.750173     0.652069  Biso 1.000000     C
    C   1.0     0.089800     0.839469     0.690385  Biso 1.000000     C
    C   1.0     0.589820     0.839470     0.690384  Biso 1.000000     C
    C   1.0     0.117840     0.933365     0.676569  Biso 1.000000     C
    C   1.0     0.617860     0.933366     0.676569  Biso 1.000000     C
    C   1.0     0.180122     0.937850     0.625336  Biso 1.000000     C
    C   1.0     0.680143     0.937851     0.625336  Biso 1.000000     C
    C   1.0     0.213931     0.847354     0.587585  Biso 1.000000     C
    C   1.0     0.713951     0.847355     0.587585  Biso 1.000000     C
    C   1.0     0.226199     0.654060     0.560871  Biso 1.000000     C
    C   1.0     0.726217     0.654062     0.560870  Biso 1.000000     C
    C   1.0     0.157643     0.716276     0.456693  Biso 1.000000     C
    C   1.0     0.657660     0.716276     0.456692  Biso 1.000000     C
    C   1.0     0.108765     0.676238     0.438558  Biso 1.000000     C
    C   1.0     0.608779     0.676241     0.438560  Biso 1.000000     C
    C   1.0     0.139835     0.564675     0.536626  Biso 1.000000     C
    C   1.0     0.639849     0.564680     0.536628  Biso 1.000000     C
    C   1.0     0.024419     0.832404     0.748023  Biso 1.000000     C
    C   1.0     0.524438     0.832406     0.748022  Biso 1.000000     C
    C   1.0     0.103022     0.750868     0.845763  Biso 1.000000     C
    C   1.0     0.603041     0.750872     0.845762  Biso 1.000000     C
    C   1.0     0.100259     0.790528     0.902945  Biso 1.000000     C
    C   1.0     0.600275     0.790532     0.902946  Biso 1.000000     C
    C   1.0     0.004868     0.919198     0.851778  Biso 1.000000     C
    C   1.0     0.504883     0.919198     0.851778  Biso 1.000000     C
    C   1.0     0.214342     0.034165     0.612048  Biso 1.000000     C
    C   1.0     0.714362     0.034166     0.612048  Biso 1.000000     C
    C   1.0     0.140928     0.219535     0.661580  Biso 1.000000     C
    C   1.0     0.640947     0.219538     0.661577  Biso 1.000000     C
    C   1.0     0.085703     0.325790     0.640175  Biso 1.000000     C
    C   1.0     0.585722     0.325792     0.640172  Biso 1.000000     C
    C   1.0     0.112519     0.221080     0.562481  Biso 1.000000     C
    C   1.0     0.612537     0.221079     0.562480  Biso 1.000000     C
    C   1.0     0.135773     0.253963     0.100280  Biso 1.000000     C
    C   1.0     0.635788     0.253965     0.100282  Biso 1.000000     C
    C   1.0     0.173981     0.250500     0.151752  Biso 1.000000     C
    C   1.0     0.673999     0.250508     0.151751  Biso 1.000000     C
    C   1.0     0.144852     0.339876     0.189974  Biso 1.000000     C
    C   1.0     0.644867     0.339882     0.189974  Biso 1.000000     C
    C   1.0     0.076730     0.434009     0.176443  Biso 1.000000     C
    C   1.0     0.576746     0.434015     0.176443  Biso 1.000000     C
    C   1.0     0.037662     0.438650     0.125574  Biso 1.000000     C
    C   1.0     0.537676     0.438650     0.125576  Biso 1.000000     C
    C   1.0     0.067869     0.348127     0.087849  Biso 1.000000     C
    C   1.0     0.567885     0.348130     0.087850  Biso 1.000000     C
    C   1.0     0.165644     0.154398     0.061057  Biso 1.000000     C
    C   1.0     0.665660     0.154401     0.061059  Biso 1.000000     C
    C   1.0     0.255742     0.216148     0.956621  Biso 1.000000     C
    C   1.0     0.755757     0.216151     0.956623  Biso 1.000000     C
    C   1.0     0.333911     0.176243     0.938447  Biso 1.000000     C
    C   1.0     0.833926     0.176244     0.938448  Biso 1.000000     C
    C   1.0     0.309144     0.064951     0.036654  Biso 1.000000     C
    C   1.0     0.809159     0.064952     0.036656  Biso 1.000000     C
    C   1.0     0.185251     0.332560     0.247163  Biso 1.000000     C
    C   1.0     0.685268     0.332569     0.247162  Biso 1.000000     C
    C   1.0     0.098268     0.251665     0.345575  Biso 1.000000     C
    C   1.0     0.598287     0.251670     0.345574  Biso 1.000000     C
    C   1.0     0.053024     0.291223     0.403085  Biso 1.000000     C
    C   1.0     0.553043     0.291227     0.403085  Biso 1.000000     C
    C   1.0     0.110273     0.419200     0.351343  Biso 1.000000     C
    C   1.0     0.610289     0.419207     0.351343  Biso 1.000000     C
    C   1.0     0.461823     0.535129     0.112721  Biso 1.000000     C
    C   1.0     0.961835     0.535131     0.112718  Biso 1.000000     C
    C   1.0     0.417883     0.720477     0.162181  Biso 1.000000     C
    C   1.0     0.917901     0.720473     0.162182  Biso 1.000000     C
    C   1.0     0.430728     0.826679     0.140491  Biso 1.000000     C
    C   1.0     0.930747     0.826674     0.140494  Biso 1.000000     C
    C   1.0     0.495074     0.721893     0.062663  Biso 1.000000     C
    C   1.0     0.995086     0.721895     0.062662  Biso 1.000000     C
    C   1.0     0.313394     0.246559     0.399789  Biso 1.000000     C
    C   1.0     0.813413     0.246561     0.399788  Biso 1.000000     C
    C   1.0     0.375731     0.249850     0.347967  Biso 1.000000     C
    C   1.0     0.875750     0.249852     0.347967  Biso 1.000000     C
    C   1.0     0.410235     0.160542     0.309660  Biso 1.000000     C
    C   1.0     0.910254     0.160543     0.309659  Biso 1.000000     C
    C   1.0     0.382196     0.066643     0.323482  Biso 1.000000     C
    C   1.0     0.882217     0.066643     0.323482  Biso 1.000000     C
    C   1.0     0.319914     0.062162     0.374716  Biso 1.000000     C
    C   1.0     0.819935     0.062163     0.374716  Biso 1.000000     C
    C   1.0     0.286103     0.152667     0.412461  Biso 1.000000     C
    C   1.0     0.786123     0.152668     0.412461  Biso 1.000000     C
    C   1.0     0.273835     0.345971     0.439163  Biso 1.000000     C
    C   1.0     0.773853     0.345973     0.439161  Biso 1.000000     C
    C   1.0     0.342387     0.283738     0.543345  Biso 1.000000     C
    C   1.0     0.842402     0.283739     0.543345  Biso 1.000000     C
    C   1.0     0.391266     0.323767     0.561485  Biso 1.000000     C
    C   1.0     0.891280     0.323770     0.561487  Biso 1.000000     C
    C   1.0     0.360201     0.435342     0.463419  Biso 1.000000     C
    C   1.0     0.860214     0.435346     0.463421  Biso 1.000000     C
    C   1.0     0.475616     0.167603     0.252021  Biso 1.000000     C
    C   1.0     0.975635     0.167604     0.252019  Biso 1.000000     C
    C   1.0     0.397012     0.249143     0.154280  Biso 1.000000     C
    C   1.0     0.897030     0.249147     0.154279  Biso 1.000000     C
    C   1.0     0.399777     0.209484     0.097096  Biso 1.000000     C
    C   1.0     0.899792     0.209488     0.097097  Biso 1.000000     C
    C   1.0     0.495166     0.080813     0.148265  Biso 1.000000     C
    C   1.0     0.995181     0.080813     0.148265  Biso 1.000000     C
    C   1.0     0.285694     0.965845     0.388012  Biso 1.000000     C
    C   1.0     0.785714     0.965846     0.388012  Biso 1.000000     C
    C   1.0     0.359108     0.780485     0.338470  Biso 1.000000     C
    C   1.0     0.859127     0.780489     0.338468  Biso 1.000000     C
    C   1.0     0.414332     0.674227     0.359872  Biso 1.000000     C
    C   1.0     0.914350     0.674229     0.359869  Biso 1.000000     C
    C   1.0     0.387516     0.778922     0.437573  Biso 1.000000     C
    C   1.0     0.887535     0.778921     0.437571  Biso 1.000000     C
    N   1.0     0.259268     0.855483     0.981020  Biso 1.000000     N
    N   1.0     0.759284     0.855484     0.981022  Biso 1.000000     N
    N   1.0     0.133168     0.918123     0.011385  Biso 1.000000     N
    N   1.0     0.633183     0.918124     0.011385  Biso 1.000000     N
    N   1.0     0.365936     0.665992     0.686910  Biso 1.000000     N
    N   1.0     0.865953     0.665998     0.686910  Biso 1.000000     N
    N   1.0     0.439028     0.604402     0.593504  Biso 1.000000     N
    N   1.0     0.939043     0.604407     0.593503  Biso 1.000000     N
    N   1.0     0.040929     0.345387     0.887778  Biso 1.000000     N
    N   1.0     0.540943     0.345388     0.887777  Biso 1.000000     N
    N   1.0     0.021287     0.172966     0.921874  Biso 1.000000     N
    N   1.0     0.521302     0.172966     0.921874  Biso 1.000000     N
    N   1.0     0.177067     0.644467     0.519028  Biso 1.000000     N
    N   1.0     0.677084     0.644469     0.519028  Biso 1.000000     N
    N   1.0     0.097889     0.581617     0.488684  Biso 1.000000     N
    N   1.0     0.597902     0.581623     0.488688  Biso 1.000000     N
    N   1.0     0.042206     0.833665     0.813692  Biso 1.000000     N
    N   1.0     0.542224     0.833667     0.813692  Biso 1.000000     N
    N   1.0     0.038646     0.895421     0.906570  Biso 1.000000     N
    N   1.0     0.538659     0.895423     0.906571  Biso 1.000000     N
    N   1.0     0.157495     0.153735     0.611749  Biso 1.000000     N
    N   1.0     0.657515     0.153736     0.611747  Biso 1.000000     N
    N   1.0     0.068489     0.326241     0.578110  Biso 1.000000     N
    N   1.0     0.568507     0.326241     0.578108  Biso 1.000000     N
    N   1.0     0.240771     0.144516     0.019030  Biso 1.000000     N
    N   1.0     0.740787     0.144518     0.019032  Biso 1.000000     N
    N   1.0     0.366871     0.081883     0.988662  Biso 1.000000     N
    N   1.0     0.866886     0.081883     0.988662  Biso 1.000000     N
    N   1.0     0.134093     0.334017     0.313140  Biso 1.000000     N
    N   1.0     0.634111     0.334024     0.313140  Biso 1.000000     N
    N   1.0     0.061002     0.395603     0.406548  Biso 1.000000     N
    N   1.0     0.561018     0.395608     0.406547  Biso 1.000000     N
    N   1.0     0.459115     0.654620     0.112266  Biso 1.000000     N
    N   1.0     0.959129     0.654620     0.112265  Biso 1.000000     N
    N   1.0     0.478758     0.827041     0.078171  Biso 1.000000     N
    N   1.0     0.978774     0.827040     0.078172  Biso 1.000000     N
    N   1.0     0.322965     0.355555     0.481011  Biso 1.000000     N
    N   1.0     0.822981     0.355557     0.481011  Biso 1.000000     N
    N   1.0     0.402146     0.418389     0.511363  Biso 1.000000     N
    N   1.0     0.902157     0.418395     0.511366  Biso 1.000000     N
    N   1.0     0.457827     0.166344     0.186351  Biso 1.000000     N
    N   1.0     0.957845     0.166346     0.186351  Biso 1.000000     N
    N   1.0     0.461390     0.104591     0.093471  Biso 1.000000     N
    N   1.0     0.961404     0.104592     0.093472  Biso 1.000000     N
    N   1.0     0.342540     0.846276     0.388307  Biso 1.000000     N
    N   1.0     0.842559     0.846277     0.388305  Biso 1.000000     N
    N   1.0     0.431546     0.673765     0.421940  Biso 1.000000     N
    N   1.0     0.931564     0.673764     0.421937  Biso 1.000000     N
    N   1.0     0.310343     0.024967     0.758015  Biso 1.000000     N
    N   1.0     0.810357     0.024970     0.758016  Biso 1.000000     N
    N   1.0     0.202211     0.473610     0.740629  Biso 1.000000     N
    N   1.0     0.702229     0.473613     0.740626  Biso 1.000000     N
    N   1.0     0.189700     0.975034     0.242021  Biso 1.000000     N
    N   1.0     0.689714     0.975038     0.242021  Biso 1.000000     N
    N   1.0     0.297819     0.526402     0.259386  Biso 1.000000     N
    N   1.0     0.797837     0.526404     0.259383  Biso 1.000000     N
    O   1.0     0.240974     0.027649     0.775237  Biso 1.000000     O
    O   1.0     0.740989     0.027650     0.775236  Biso 1.000000     O
    O   1.0     0.345655     0.008761     0.698208  Biso 1.000000     O
    O   1.0     0.845671     0.008767     0.698208  Biso 1.000000     O
    O   1.0     0.344340     0.037246     0.800243  Biso 1.000000     O
    O   1.0     0.844352     0.037249     0.800245  Biso 1.000000     O
    O   1.0     0.141701     0.472391     0.724858  Biso 1.000000     O
    O   1.0     0.641718     0.472392     0.724859  Biso 1.000000     O
    O   1.0     0.200593     0.491123     0.799751  Biso 1.000000     O
    O   1.0     0.700614     0.491132     0.799745  Biso 1.000000     O
    O   1.0     0.263351     0.458478     0.697702  Biso 1.000000     O
    O   1.0     0.763369     0.458476     0.697697  Biso 1.000000     O
    O   1.0     0.259070     0.972341     0.224783  Biso 1.000000     O
    O   1.0     0.759085     0.972342     0.224781  Biso 1.000000     O
    O   1.0     0.154405     0.991243     0.301832  Biso 1.000000     O
    O   1.0     0.654421     0.991249     0.301833  Biso 1.000000     O
    O   1.0     0.155683     0.962763     0.199805  Biso 1.000000     O
    O   1.0     0.655696     0.962767     0.199807  Biso 1.000000     O
    O   1.0     0.358322     0.527620     0.275169  Biso 1.000000     O
    O   1.0     0.858339     0.527620     0.275170  Biso 1.000000     O
    O   1.0     0.299446     0.508907     0.200257  Biso 1.000000     O
    O   1.0     0.799468     0.508915     0.200252  Biso 1.000000     O
    O   1.0     0.236675     0.541516     0.302308  Biso 1.000000     O
    O   1.0     0.736692     0.541514     0.302304  Biso 1.000000     O
   Cd   1.0     0.000018     0.000003     0.000010  Biso 1.000000    Cd
   Cd   1.0     0.500030     0.000004     0.000010  Biso 1.000000    Cd
   Cd   1.0     0.000012     0.500002     0.500027  Biso 1.000000    Cd
   Cd   1.0     0.500025     0.500002     0.500027  Biso 1.000000    Cd
