#======================================================================

# CRYSTAL DATA

#----------------------------------------------------------------------

data_VESTA_phase_1


_pd_phase_name                         MOF
_cell_length_a                         22.20700
_cell_length_b                         14.00800
_cell_length_c                         16.17500
_cell_angle_alpha                      90.00000
_cell_angle_beta                       90.00000
_cell_angle_gamma                      90.00000
_symmetry_space_group_name_H-M         "P 1"
_symmetry_Int_Tables_number            1

loop_
_symmetry_equiv_pos_as_xyz
   "x, y, z"

loop_
   _atom_site_label
   _atom_site_occupancy
   _atom_site_fract_x
   _atom_site_fract_y
   _atom_site_fract_z
   _atom_site_adp_type
   _atom_site_B_iso_or_equiv
   _atom_site_type_symbol
    H   1.0     0.430806     0.847226     0.664899  Biso 1.000000     H
    H   1.0     0.931142     0.845670     0.664048  Biso 1.000000     H
    H   1.0     0.371858     0.848541     0.796645  Biso 1.000000     H
    H   1.0     0.872204     0.845670     0.795808  Biso 1.000000     H
    H   1.0     0.069195     0.152782     0.664897  Biso 1.000000     H
    H   1.0     0.568890     0.154350     0.664020  Biso 1.000000     H
    H   1.0     0.128128     0.151472     0.796655  Biso 1.000000     H
    H   1.0     0.627833     0.154360     0.795778  Biso 1.000000     H
    H   1.0     0.069113     0.847416     0.335158  Biso 1.000000     H
    H   1.0     0.568858     0.845704     0.335980  Biso 1.000000     H
    H   1.0     0.128058     0.848609     0.203410  Biso 1.000000     H
    H   1.0     0.627806     0.845696     0.204227  Biso 1.000000     H
    H   1.0     0.430833     0.152631     0.335193  Biso 1.000000     H
    H   1.0     0.931136     0.154352     0.335981  Biso 1.000000     H
    H   1.0     0.371888     0.151422     0.203444  Biso 1.000000     H
    H   1.0     0.872199     0.154351     0.204219  Biso 1.000000     H
    H   1.0     0.068876     0.154454     0.335942  Biso 1.000000     H
    H   1.0     0.569177     0.152741     0.335159  Biso 1.000000     H
    H   1.0     0.127817     0.154400     0.204185  Biso 1.000000     H
    H   1.0     0.628119     0.151489     0.203409  Biso 1.000000     H
    H   1.0     0.431112     0.845594     0.335971  Biso 1.000000     H
    H   1.0     0.930849     0.847314     0.335146  Biso 1.000000     H
    H   1.0     0.372171     0.845630     0.204214  Biso 1.000000     H
    H   1.0     0.871916     0.848559     0.203388  Biso 1.000000     H
    H   1.0     0.431175     0.154263     0.664017  Biso 1.000000     H
    H   1.0     0.930880     0.152708     0.664901  Biso 1.000000     H
    H   1.0     0.372222     0.154333     0.795765  Biso 1.000000     H
    H   1.0     0.871937     0.151462     0.796651  Biso 1.000000     H
    H   1.0     0.068832     0.845745     0.664017  Biso 1.000000     H
    H   1.0     0.569192     0.847313     0.664855  Biso 1.000000     H
    H   1.0     0.127771     0.845680     0.795777  Biso 1.000000     H
    H   1.0     0.628138     0.848568     0.796603  Biso 1.000000     H
    H   1.0     0.343001     0.747794     0.000723  Biso 1.000000     H
    H   1.0     0.843051     0.747876    -0.000829  Biso 1.000000     H
    H   1.0     0.347565     0.571012     0.000599  Biso 1.000000     H
    H   1.0     0.847653     0.571088    -0.000744  Biso 1.000000     H
    H   1.0     0.156952     0.252131     0.000697  Biso 1.000000     H
    H   1.0     0.657001     0.252215    -0.000858  Biso 1.000000     H
    H   1.0     0.152352     0.428918     0.000583  Biso 1.000000     H
    H   1.0     0.652440     0.428997    -0.000766  Biso 1.000000     H
    H   1.0     0.156951     0.747843     0.999321  Biso 1.000000     H
    H   1.0     0.657001     0.747823     0.000842  Biso 1.000000     H
    H   1.0     0.152351     0.571050    -0.000594  Biso 1.000000     H
    H   1.0     0.652440     0.571041     0.000751  Biso 1.000000     H
    H   1.0     0.343003     0.252181    -0.000720  Biso 1.000000     H
    H   1.0     0.843051     0.252164     0.000843  Biso 1.000000     H
    H   1.0     0.347565     0.428963    -0.000599  Biso 1.000000     H
    H   1.0     0.847652     0.428952     0.000759  Biso 1.000000     H
    C   1.0     0.418399     0.914647     0.693990  Biso 1.000000     C
    C   1.0     0.918590     0.912803     0.693517  Biso 1.000000     C
    C   1.0     0.385675     0.915035     0.767378  Biso 1.000000     C
    C   1.0     0.885873     0.912461     0.766918  Biso 1.000000     C
    C   1.0     0.081606     0.085363     0.693987  Biso 1.000000     C
    C   1.0     0.581445     0.087221     0.693493  Biso 1.000000     C
    C   1.0     0.114321     0.084977     0.767382  Biso 1.000000     C
    C   1.0     0.614166     0.087568     0.766889  Biso 1.000000     C
    C   1.0     0.081555     0.914810     0.306049  Biso 1.000000     C
    C   1.0     0.581415     0.912835     0.306512  Biso 1.000000     C
    C   1.0     0.114273     0.915130     0.232656  Biso 1.000000     C
    C   1.0     0.614140     0.912487     0.233119  Biso 1.000000     C
    C   1.0     0.418407     0.085233     0.306078  Biso 1.000000     C
    C   1.0     0.918582     0.087219     0.306514  Biso 1.000000     C
    C   1.0     0.385686     0.084904     0.232687  Biso 1.000000     C
    C   1.0     0.885864     0.087562     0.233115  Biso 1.000000     C
    C   1.0     0.081422     0.087309     0.306489  Biso 1.000000     C
    C   1.0     0.581595     0.085334     0.306053  Biso 1.000000     C
    C   1.0     0.114140     0.087622     0.233089  Biso 1.000000     C
    C   1.0     0.614318     0.084980     0.232663  Biso 1.000000     C
    C   1.0     0.418563     0.912735     0.306513  Biso 1.000000     C
    C   1.0     0.918420     0.914720     0.306047  Biso 1.000000     C
    C   1.0     0.385842     0.912412     0.233116  Biso 1.000000     C
    C   1.0     0.885704     0.915069     0.232652  Biso 1.000000     C
    C   1.0     0.418605     0.087145     0.693499  Biso 1.000000     C
    C   1.0     0.918444     0.085301     0.693994  Biso 1.000000     C
    C   1.0     0.385878     0.087527     0.766891  Biso 1.000000     C
    C   1.0     0.885726     0.084953     0.767387  Biso 1.000000     C
    C   1.0     0.081402     0.912864     0.693495  Biso 1.000000     C
    C   1.0     0.581612     0.914721     0.693958  Biso 1.000000     C
    C   1.0     0.114121     0.912485     0.766895  Biso 1.000000     C
    C   1.0     0.614334     0.915075     0.767348  Biso 1.000000     C
    C   1.0     0.437873    -0.000149     0.500021  Biso 1.000000     C
    C   1.0     0.937872    -0.000032     0.500017  Biso 1.000000     C
    C   1.0     0.062135     0.000153     0.500006  Biso 1.000000     C
    C   1.0     0.562139     0.000048     0.500005  Biso 1.000000     C
    C   1.0     0.249957     0.552985    -0.000000  Biso 1.000000     C
    C   1.0     0.750047     0.553019     0.000002  Biso 1.000000     C
    C   1.0     0.249958     0.446986    -0.000005  Biso 1.000000     C
    C   1.0     0.750047     0.447020    -0.000002  Biso 1.000000     C
    C   1.0     0.468229     0.000298     0.576110  Biso 1.000000     C
    C   1.0     0.968226    -0.000386     0.576107  Biso 1.000000     C
    C   1.0     0.434787     0.000689     0.655977  Biso 1.000000     C
    C   1.0     0.934795    -0.000786     0.655982  Biso 1.000000     C
    C   1.0     0.368817     0.001460     0.804294  Biso 1.000000     C
    C   1.0     0.868835    -0.001480     0.804308  Biso 1.000000     C
    C   1.0     0.330415     0.001809     0.880577  Biso 1.000000     C
    C   1.0     0.830428    -0.001808     0.880586  Biso 1.000000     C
    C   1.0     0.031788    -0.000307     0.576102  Biso 1.000000     C
    C   1.0     0.531794     0.000382     0.576102  Biso 1.000000     C
    C   1.0     0.065230    -0.000707     0.655967  Biso 1.000000     C
    C   1.0     0.565244     0.000781     0.655961  Biso 1.000000     C
    C   1.0     0.131181    -0.001474     0.804301  Biso 1.000000     C
    C   1.0     0.631211     0.001485     0.804279  Biso 1.000000     C
    C   1.0     0.169586    -0.001821     0.880580  Biso 1.000000     C
    C   1.0     0.669598     0.001819     0.880575  Biso 1.000000     C
    C   1.0     0.031781     0.000503     0.423916  Biso 1.000000     C
    C   1.0     0.531783    -0.000388     0.423916  Biso 1.000000     C
    C   1.0     0.065214     0.000885     0.344043  Biso 1.000000     C
    C   1.0     0.565222    -0.000752     0.344048  Biso 1.000000     C
    C   1.0     0.131167     0.001522     0.195711  Biso 1.000000     C
    C   1.0     0.631200    -0.001457     0.195739  Biso 1.000000     C
    C   1.0     0.169583     0.001822     0.119443  Biso 1.000000     C
    C   1.0     0.669586    -0.001796     0.119442  Biso 1.000000     C
    C   1.0     0.468218    -0.000481     0.423924  Biso 1.000000     C
    C   1.0     0.968219     0.000414     0.423921  Biso 1.000000     C
    C   1.0     0.434769    -0.000863     0.344064  Biso 1.000000     C
    C   1.0     0.934780     0.000781     0.344053  Biso 1.000000     C
    C   1.0     0.368809    -0.001520     0.195737  Biso 1.000000     C
    C   1.0     0.868815     0.001477     0.195732  Biso 1.000000     C
    C   1.0     0.330410    -0.001832     0.119452  Biso 1.000000     C
    C   1.0     0.830427     0.001809     0.119438  Biso 1.000000     C
    C   1.0     0.302055     0.704866     0.000360  Biso 1.000000     C
    C   1.0     0.802115     0.704925    -0.000417  Biso 1.000000     C
    C   1.0     0.303786     0.605791     0.000324  Biso 1.000000     C
    C   1.0     0.803867     0.605848    -0.000394  Biso 1.000000     C
    C   1.0     0.197890     0.295081     0.000342  Biso 1.000000     C
    C   1.0     0.697948     0.295141    -0.000437  Biso 1.000000     C
    C   1.0     0.196138     0.394158     0.000310  Biso 1.000000     C
    C   1.0     0.696218     0.394216    -0.000410  Biso 1.000000     C
    C   1.0     0.197887     0.704888    -0.000349  Biso 1.000000     C
    C   1.0     0.697948     0.704898     0.000428  Biso 1.000000     C
    C   1.0     0.196137     0.605811    -0.000319  Biso 1.000000     C
    C   1.0     0.696218     0.605822     0.000401  Biso 1.000000     C
    C   1.0     0.302058     0.295113     0.999667  Biso 1.000000     C
    C   1.0     0.802117     0.295121     0.000000  Biso 1.000000     C
    C   1.0     0.303787     0.394182    -0.000326  Biso 1.000000     C
    C   1.0     0.803867     0.394192     0.000402  Biso 1.000000     C
    N   1.0     0.249975     0.753956     0.000006  Biso 1.000000     N
    N   1.0     0.750026     0.753990     0.000006  Biso 1.000000     N
    N   1.0     0.249978     0.246014    -0.000009  Biso 1.000000     N
    N   1.0     0.750026     0.246050    -0.000006  Biso 1.000000     N
    O   1.0     0.314873     0.920907     0.909694  Biso 1.000000     O
    O   1.0     0.815042     0.917092     0.909473  Biso 1.000000     O
    O   1.0     0.185125     0.079110     0.909692  Biso 1.000000     O
    O   1.0     0.684970     0.082947     0.909469  Biso 1.000000     O
    O   1.0     0.185112     0.920909     0.090342  Biso 1.000000     O
    O   1.0     0.684964     0.917100     0.090558  Biso 1.000000     O
    O   1.0     0.314882     0.079106     0.090342  Biso 1.000000     O
    O   1.0     0.815041     0.082937     0.090553  Biso 1.000000     O
    O   1.0     0.184964     0.082943     0.090542  Biso 1.000000     O
    O   1.0     0.685128     0.079135     0.090333  Biso 1.000000     O
    O   1.0     0.315032     0.917071     0.090548  Biso 1.000000     O
    O   1.0     0.814880     0.920903     0.090335  Biso 1.000000     O
    O   1.0     0.315043     0.082941     0.909467  Biso 1.000000     O
    O   1.0     0.814887     0.079126     0.909689  Biso 1.000000     O
    O   1.0     0.184956     0.917076     0.909471  Biso 1.000000     O
    O   1.0     0.685127     0.920912     0.909689  Biso 1.000000     O
   Zn   1.0     0.249993     0.901569     0.000001  Biso 1.000000    Zn
   Zn   1.0     0.750001     0.901619    -0.000001  Biso 1.000000    Zn
   Zn   1.0     0.250004     0.098374    -0.000002  Biso 1.000000    Zn
   Zn   1.0     0.750005     0.098428    -0.000004  Biso 1.000000    Zn
   Br   1.0     0.351229    -0.000298     0.500032  Biso 1.000000    Br
   Br   1.0     0.851228    -0.000156     0.500026  Biso 1.000000    Br
   Br   1.0     0.148779     0.000297     0.499996  Biso 1.000000    Br
   Br   1.0     0.648784     0.000183     0.499992  Biso 1.000000    Br
