#======================================================================

# CRYSTAL DATA

#----------------------------------------------------------------------

data_VESTA_phase_1


_pd_phase_name                         MOF
_cell_length_a                         23.28500
_cell_length_b                         13.97600
_cell_length_c                         15.78200
_cell_angle_alpha                      96.06300
_cell_angle_beta                       89.99600
_cell_angle_gamma                      89.97700
_symmetry_space_group_name_H-M         "P 1"
_symmetry_Int_Tables_number            1

loop_
_symmetry_equiv_pos_as_xyz
   "x, y, z"

loop_
   _atom_site_label
   _atom_site_occupancy
   _atom_site_fract_x
   _atom_site_fract_y
   _atom_site_fract_z
   _atom_site_adp_type
   _atom_site_B_iso_or_equiv
   _atom_site_type_symbol
    H   1.0     0.202870     0.167177     0.148225  Biso 1.000000     H
    H   1.0     0.702862     0.167176     0.148225  Biso 1.000000     H
    H   1.0     0.267992     0.169042     0.273616  Biso 1.000000     H
    H   1.0     0.767984     0.169041     0.273616  Biso 1.000000     H
    H   1.0     0.185931     0.427438     0.386518  Biso 1.000000     H
    H   1.0     0.685923     0.427437     0.386518  Biso 1.000000     H
    H   1.0     0.124940     0.430488     0.256326  Biso 1.000000     H
    H   1.0     0.624933     0.430488     0.256326  Biso 1.000000     H
    H   1.0     0.403463     0.298390     0.492680  Biso 1.000000     H
    H   1.0     0.903455     0.298389     0.492680  Biso 1.000000     H
    H   1.0     0.191588     0.294888     0.495899  Biso 1.000000     H
    H   1.0     0.691580     0.294886     0.495899  Biso 1.000000     H
    H   1.0     0.409890     0.422682     0.627475  Biso 1.000000     H
    H   1.0     0.909881     0.422681     0.627475  Biso 1.000000     H
    H   1.0     0.470557     0.423593     0.757845  Biso 1.000000     H
    H   1.0     0.970549     0.423592     0.757845  Biso 1.000000     H
    H   1.0     0.390491     0.161615     0.815701  Biso 1.000000     H
    H   1.0     0.890483     0.161614     0.815701  Biso 1.000000     H
    H   1.0     0.325836     0.165369     0.690284  Biso 1.000000     H
    H   1.0     0.825828     0.165368     0.690285  Biso 1.000000     H
    H   1.0     0.410234     0.174755     0.358356  Biso 1.000000     H
    H   1.0     0.910227     0.174755     0.358357  Biso 1.000000     H
    H   1.0     0.470786     0.179083     0.228448  Biso 1.000000     H
    H   1.0     0.970779     0.179082     0.228448  Biso 1.000000     H
    H   1.0     0.384203     0.436136     0.171236  Biso 1.000000     H
    H   1.0     0.884195     0.436135     0.171236  Biso 1.000000     H
    H   1.0     0.321394     0.429045     0.297401  Biso 1.000000     H
    H   1.0     0.821386     0.429044     0.297402  Biso 1.000000     H
    H   1.0     0.191089     0.159840     0.608462  Biso 1.000000     H
    H   1.0     0.691081     0.159839     0.608462  Biso 1.000000     H
    H   1.0     0.130986     0.158892     0.739439  Biso 1.000000     H
    H   1.0     0.630977     0.158891     0.739439  Biso 1.000000     H
    H   1.0     0.204721     0.429435     0.839533  Biso 1.000000     H
    H   1.0     0.704713     0.429435     0.839533  Biso 1.000000     H
    H   1.0     0.267595     0.427193     0.712981  Biso 1.000000     H
    H   1.0     0.767587     0.427193     0.712980  Biso 1.000000     H
    H   1.0     0.137603     0.557171     0.000000  Biso 1.000000     H
    H   1.0     0.637596     0.557171     0.000000  Biso 1.000000     H
    H   1.0     0.140512     0.734015     0.012877  Biso 1.000000     H
    H   1.0     0.640504     0.734015     0.012879  Biso 1.000000     H
    H   1.0     0.455283     0.728235     0.990348  Biso 1.000000     H
    H   1.0     0.955275     0.728235     0.990347  Biso 1.000000     H
    H   1.0     0.459782     0.551755    -0.004858  Biso 1.000000     H
    H   1.0     0.959774     0.551755    -0.004857  Biso 1.000000     H
    H   1.0     0.122751     0.852090     0.913527  Biso 1.000000     H
    H   1.0     0.622744     0.852090     0.913528  Biso 1.000000     H
    H   1.0     0.117822     0.030747     0.907530  Biso 1.000000     H
    H   1.0     0.617815     0.030747     0.907531  Biso 1.000000     H
    H   1.0     0.473902     0.056141     0.061328  Biso 1.000000     H
    H   1.0     0.973895     0.056142     0.061329  Biso 1.000000     H
    H   1.0     0.470687     0.878040     0.071736  Biso 1.000000     H
    H   1.0     0.970680     0.878041     0.071738  Biso 1.000000     H
    H   1.0     0.452806     0.832761     0.851761  Biso 1.000000     H
    H   1.0     0.952797     0.832761     0.851761  Biso 1.000000     H
    H   1.0     0.017940     0.830891     0.726358  Biso 1.000000     H
    H   1.0     0.517933     0.830889     0.726359  Biso 1.000000     H
    H   1.0     0.435959     0.572548     0.613434  Biso 1.000000     H
    H   1.0     0.935950     0.572550     0.613433  Biso 1.000000     H
    H   1.0     0.374959     0.569509     0.743632  Biso 1.000000     H
    H   1.0     0.874951     0.569508     0.743631  Biso 1.000000     H
    H   1.0     0.153461     0.701626     0.507275  Biso 1.000000     H
    H   1.0     0.653453     0.701625     0.507275  Biso 1.000000     H
    H   1.0     0.441576     0.705049     0.504078  Biso 1.000000     H
    H   1.0     0.941568     0.705049     0.504078  Biso 1.000000     H
    H   1.0     0.159942     0.577314     0.372472  Biso 1.000000     H
    H   1.0     0.659934     0.577313     0.372471  Biso 1.000000     H
    H   1.0     0.220611     0.576420     0.242087  Biso 1.000000     H
    H   1.0     0.720603     0.576420     0.242087  Biso 1.000000     H
    H   1.0     0.140445     0.838441     0.184302  Biso 1.000000     H
    H   1.0     0.640437     0.838442     0.184302  Biso 1.000000     H
    H   1.0     0.075785     0.834667     0.309729  Biso 1.000000     H
    H   1.0     0.575776     0.834666     0.309729  Biso 1.000000     H
    H   1.0     0.160182     0.825221     0.641581  Biso 1.000000     H
    H   1.0     0.660174     0.825219     0.641580  Biso 1.000000     H
    H   1.0     0.220729     0.820915     0.771484  Biso 1.000000     H
    H   1.0     0.720721     0.820914     0.771483  Biso 1.000000     H
    H   1.0     0.134242     0.563909     0.828764  Biso 1.000000     H
    H   1.0     0.634234     0.563909     0.828765  Biso 1.000000     H
    H   1.0     0.071439     0.570976     0.702604  Biso 1.000000     H
    H   1.0     0.571431     0.570974     0.702604  Biso 1.000000     H
    H   1.0     0.441054     0.840167     0.391468  Biso 1.000000     H
    H   1.0     0.941045     0.840165     0.391469  Biso 1.000000     H
    H   1.0     0.380957     0.841112     0.260502  Biso 1.000000     H
    H   1.0     0.880947     0.841109     0.260503  Biso 1.000000     H
    H   1.0     0.454754     0.570482     0.160466  Biso 1.000000     H
    H   1.0     0.954746     0.570481     0.160466  Biso 1.000000     H
    H   1.0     0.017633     0.572730     0.287006  Biso 1.000000     H
    H   1.0     0.517624     0.572729     0.287006  Biso 1.000000     H
    H   1.0     0.387628     0.442689    -0.017935  Biso 1.000000     H
    H   1.0     0.887620     0.442689    -0.017935  Biso 1.000000     H
    H   1.0     0.390531     0.265841     0.987118  Biso 1.000000     H
    H   1.0     0.890523     0.265841     0.987119  Biso 1.000000     H
    H   1.0     0.205294     0.271895     0.009596  Biso 1.000000     H
    H   1.0     0.705286     0.271895     0.009596  Biso 1.000000     H
    H   1.0     0.209817     0.448368     0.000000  Biso 1.000000     H
    H   1.0     0.709809     0.448367     0.000000  Biso 1.000000     H
    H   1.0     0.372729     0.147784     0.086443  Biso 1.000000     H
    H   1.0     0.872721     0.147783     0.086441  Biso 1.000000     H
    H   1.0     0.367773     0.969129     0.092441  Biso 1.000000     H
    H   1.0     0.867765     0.969129     0.092440  Biso 1.000000     H
    H   1.0     0.223892     0.943969     0.938647  Biso 1.000000     H
    H   1.0     0.723884     0.943968     0.938647  Biso 1.000000     H
    H   1.0     0.220708     0.122072     0.928230  Biso 1.000000     H
    H   1.0     0.720700     0.122071     0.928229  Biso 1.000000     H
    C   1.0     0.121857     0.299391     0.118180  Biso 1.000000     C
    C   1.0     0.621848     0.299391     0.118180  Biso 1.000000     C
    C   1.0     0.160173     0.299117     0.194318  Biso 1.000000     C
    C   1.0     0.660165     0.299117     0.194318  Biso 1.000000     C
    C   1.0     0.200351     0.225227     0.199888  Biso 1.000000     C
    C   1.0     0.700344     0.225226     0.199888  Biso 1.000000     C
    C   1.0     0.236318     0.226013     0.270382  Biso 1.000000     C
    C   1.0     0.736310     0.226012     0.270381  Biso 1.000000     C
    C   1.0     0.231239     0.298564     0.338745  Biso 1.000000     C
    C   1.0     0.731231     0.298563     0.338744  Biso 1.000000     C
    C   1.0     0.190075     0.371164     0.333472  Biso 1.000000     C
    C   1.0     0.690067     0.371163     0.333472  Biso 1.000000     C
    C   1.0     0.155734     0.372738     0.261492  Biso 1.000000     C
    C   1.0     0.655727     0.372738     0.261491  Biso 1.000000     C
    C   1.0     0.266590     0.298072     0.416927  Biso 1.000000     C
    C   1.0     0.766582     0.298071     0.416927  Biso 1.000000     C
    C   1.0     0.327271     0.298719     0.415925  Biso 1.000000     C
    C   1.0     0.827263     0.298719     0.415925  Biso 1.000000     C
    C   1.0     0.356609     0.297571     0.493367  Biso 1.000000     C
    C   1.0     0.856601     0.297570     0.493367  Biso 1.000000     C
    C   1.0     0.328473     0.295522     0.571664  Biso 1.000000     C
    C   1.0     0.828465     0.295522     0.571664  Biso 1.000000     C
    C   1.0     0.267803     0.294196     0.572479  Biso 1.000000     C
    C   1.0     0.767795     0.294195     0.572479  Biso 1.000000     C
    C   1.0     0.238442     0.295640     0.495154  Biso 1.000000     C
    C   1.0     0.738434     0.295639     0.495154  Biso 1.000000     C
    C   1.0     0.363664     0.294303     0.649925  Biso 1.000000     C
    C   1.0     0.863656     0.294302     0.649924  Biso 1.000000     C
    C   1.0     0.405265     0.365973     0.669359  Biso 1.000000     C
    C   1.0     0.905256     0.365972     0.669359  Biso 1.000000     C
    C   1.0     0.439449     0.366418     0.741648  Biso 1.000000     C
    C   1.0     0.939441     0.366418     0.741649  Biso 1.000000     C
    C   1.0     0.434403     0.292527     0.794684  Biso 1.000000     C
    C   1.0     0.934395     0.292527     0.794684  Biso 1.000000     C
    C   1.0     0.393659     0.219660     0.774954  Biso 1.000000     C
    C   1.0     0.893651     0.219660     0.774954  Biso 1.000000     C
    C   1.0     0.357925     0.221554     0.704428  Biso 1.000000     C
    C   1.0     0.857916     0.221553     0.704428  Biso 1.000000     C
    C   1.0     0.361476     0.301377     0.336849  Biso 1.000000     C
    C   1.0     0.861467     0.301376     0.336848  Biso 1.000000     C
    C   1.0     0.404160     0.231532     0.316779  Biso 1.000000     C
    C   1.0     0.904152     0.231531     0.316779  Biso 1.000000     C
    C   1.0     0.437937     0.233555     0.244344  Biso 1.000000     C
    C   1.0     0.937930     0.233555     0.244345  Biso 1.000000     C
    C   1.0     0.431108     0.307169     0.191227  Biso 1.000000     C
    C   1.0     0.931100     0.307169     0.191227  Biso 1.000000     C
    C   1.0     0.389174     0.378000     0.211501  Biso 1.000000     C
    C   1.0     0.889166     0.378000     0.211502  Biso 1.000000     C
    C   1.0     0.354160     0.374090     0.282645  Biso 1.000000     C
    C   1.0     0.854152     0.374089     0.282645  Biso 1.000000     C
    C   1.0     0.233673     0.293240     0.651849  Biso 1.000000     C
    C   1.0     0.733665     0.293239     0.651849  Biso 1.000000     C
    C   1.0     0.194577     0.218204     0.659875  Biso 1.000000     C
    C   1.0     0.694569     0.218203     0.659875  Biso 1.000000     C
    C   1.0     0.161041     0.217330     0.732760  Biso 1.000000     C
    C   1.0     0.661032     0.217330     0.732759  Biso 1.000000     C
    C   1.0     0.164405     0.293175     0.798275  Biso 1.000000     C
    C   1.0     0.664397     0.293175     0.798274  Biso 1.000000     C
    C   1.0     0.202685     0.369134     0.789964  Biso 1.000000     C
    C   1.0     0.702677     0.369134     0.789963  Biso 1.000000     C
    C   1.0     0.237675     0.368162     0.718333  Biso 1.000000     C
    C   1.0     0.737667     0.368161     0.718332  Biso 1.000000     C
    C   1.0     0.098210     0.597491     0.011346  Biso 1.000000     C
    C   1.0     0.598202     0.597491     0.011346  Biso 1.000000     C
    C   1.0     0.099587     0.696236     0.007698  Biso 1.000000     C
    C   1.0     0.599580     0.696235     0.007699  Biso 1.000000     C
    C   1.0     0.047916     0.745817    -0.000308  Biso 1.000000     C
    C   1.0     0.547909     0.745817    -0.000308  Biso 1.000000     C
    C   1.0     0.496623     0.693286    -0.003570  Biso 1.000000     C
    C   1.0     0.996615     0.693286    -0.003570  Biso 1.000000     C
    C   1.0    -0.001126     0.594485    -0.001278  Biso 1.000000     C
    C   1.0     0.498867     0.594484    -0.001279  Biso 1.000000     C
    C   1.0     0.047259     0.850509    -0.005643  Biso 1.000000     C
    C   1.0     0.547252     0.850509    -0.005642  Biso 1.000000     C
    C   1.0     0.089251     0.894692     0.947852  Biso 1.000000     C
    C   1.0     0.589244     0.894692     0.947853  Biso 1.000000     C
    C   1.0     0.086845    -0.006600     0.944029  Biso 1.000000     C
    C   1.0     0.586838    -0.006600     0.944030  Biso 1.000000     C
    C   1.0     0.005372     0.007333     0.029147  Biso 1.000000     C
    C   1.0     0.505364     0.007333     0.029146  Biso 1.000000     C
    C   1.0     0.004219     0.908952     0.034864  Biso 1.000000     C
    C   1.0     0.504211     0.908951     0.034864  Biso 1.000000     C
    C   1.0     0.126067     0.292948     0.874454  Biso 1.000000     C
    C   1.0     0.626059     0.292948     0.874454  Biso 1.000000     C
    C   1.0     0.469246     0.308464     0.114927  Biso 1.000000     C
    C   1.0     0.969237     0.308464     0.114927  Biso 1.000000     C
    C   1.0     0.472765     0.291865     0.870704  Biso 1.000000     C
    C   1.0     0.972758     0.291864     0.870704  Biso 1.000000     C
    C   1.0     0.371838     0.700579     0.881792  Biso 1.000000     C
    C   1.0     0.871830     0.700579     0.881793  Biso 1.000000     C
    C   1.0     0.410155     0.700846     0.805653  Biso 1.000000     C
    C   1.0     0.910145     0.700848     0.805651  Biso 1.000000     C
    C   1.0     0.450309     0.774722     0.800089  Biso 1.000000     C
    C   1.0     0.950299     0.774724     0.800088  Biso 1.000000     C
    C   1.0     0.486277     0.773932     0.729591  Biso 1.000000     C
    C   1.0     0.986268     0.773933     0.729591  Biso 1.000000     C
    C   1.0     0.481223     0.701394     0.661221  Biso 1.000000     C
    C   1.0     0.981215     0.701394     0.661222  Biso 1.000000     C
    C   1.0     0.440082     0.628812     0.666486  Biso 1.000000     C
    C   1.0     0.940073     0.628812     0.666486  Biso 1.000000     C
    C   1.0     0.405739     0.627241     0.738470  Biso 1.000000     C
    C   1.0     0.905729     0.627242     0.738469  Biso 1.000000     C
    C   1.0     0.016586     0.701889     0.583040  Biso 1.000000     C
    C   1.0     0.516578     0.701888     0.583039  Biso 1.000000     C
    C   1.0     0.077268     0.701267     0.584043  Biso 1.000000     C
    C   1.0     0.577260     0.701265     0.584043  Biso 1.000000     C
    C   1.0     0.106607     0.702429     0.506597  Biso 1.000000     C
    C   1.0     0.606599     0.702427     0.506597  Biso 1.000000     C
    C   1.0     0.078471     0.704472     0.428306  Biso 1.000000     C
    C   1.0     0.578463     0.704471     0.428306  Biso 1.000000     C
    C   1.0     0.017801     0.705769     0.427488  Biso 1.000000     C
    C   1.0     0.517793     0.705769     0.427488  Biso 1.000000     C
    C   1.0     0.488431     0.704311     0.504815  Biso 1.000000     C
    C   1.0     0.988422     0.704311     0.504815  Biso 1.000000     C
    C   1.0     0.113663     0.705707     0.350045  Biso 1.000000     C
    C   1.0     0.613656     0.705708     0.350046  Biso 1.000000     C
    C   1.0     0.155294     0.634032     0.330597  Biso 1.000000     C
    C   1.0     0.655286     0.634032     0.330597  Biso 1.000000     C
    C   1.0     0.189480     0.633598     0.258306  Biso 1.000000     C
    C   1.0     0.689472     0.633597     0.258305  Biso 1.000000     C
    C   1.0     0.184403     0.707506     0.205290  Biso 1.000000     C
    C   1.0     0.684395     0.707506     0.205289  Biso 1.000000     C
    C   1.0     0.143633     0.780384     0.225037  Biso 1.000000     C
    C   1.0     0.643625     0.780383     0.225037  Biso 1.000000     C
    C   1.0     0.107896     0.778477     0.295564  Biso 1.000000     C
    C   1.0     0.607888     0.778477     0.295565  Biso 1.000000     C
    C   1.0     0.111472     0.698619     0.663117  Biso 1.000000     C
    C   1.0     0.611463     0.698618     0.663117  Biso 1.000000     C
    C   1.0     0.154128     0.768457     0.683170  Biso 1.000000     C
    C   1.0     0.654120     0.768455     0.683170  Biso 1.000000     C
    C   1.0     0.187903     0.766446     0.755605  Biso 1.000000     C
    C   1.0     0.687895     0.766444     0.755604  Biso 1.000000     C
    C   1.0     0.181100     0.692852     0.808743  Biso 1.000000     C
    C   1.0     0.681092     0.692850     0.808742  Biso 1.000000     C
    C   1.0     0.139193     0.622030     0.788485  Biso 1.000000     C
    C   1.0     0.639186     0.622029     0.788485  Biso 1.000000     C
    C   1.0     0.104182     0.625926     0.717341  Biso 1.000000     C
    C   1.0     0.604175     0.625925     0.717341  Biso 1.000000     C
    C   1.0     0.483668     0.706721     0.348115  Biso 1.000000     C
    C   1.0     0.983659     0.706719     0.348116  Biso 1.000000     C
    C   1.0     0.444556     0.781781     0.340072  Biso 1.000000     C
    C   1.0     0.944547     0.781780     0.340073  Biso 1.000000     C
    C   1.0     0.411023     0.782652     0.267191  Biso 1.000000     C
    C   1.0     0.911014     0.782651     0.267191  Biso 1.000000     C
    C   1.0     0.414401     0.706782     0.201694  Biso 1.000000     C
    C   1.0     0.914393     0.706782     0.201694  Biso 1.000000     C
    C   1.0     0.452700     0.630802     0.210019  Biso 1.000000     C
    C   1.0     0.952692     0.630802     0.210019  Biso 1.000000     C
    C   1.0     0.487689     0.631777     0.281646  Biso 1.000000     C
    C   1.0     0.987681     0.631777     0.281646  Biso 1.000000     C
    C   1.0     0.348238     0.402428     0.988645  Biso 1.000000     C
    C   1.0     0.848230     0.402428     0.988644  Biso 1.000000     C
    C   1.0     0.349607     0.303681     0.992291  Biso 1.000000     C
    C   1.0     0.849599     0.303681     0.992291  Biso 1.000000     C
    C   1.0     0.297930     0.254175     0.000000  Biso 1.000000     C
    C   1.0     0.797922     0.254174     0.000000  Biso 1.000000     C
    C   1.0     0.246647     0.306782     0.000000  Biso 1.000000     C
    C   1.0     0.746639     0.306781     0.000000  Biso 1.000000     C
    C   1.0     0.248898     0.405579     0.000000  Biso 1.000000     C
    C   1.0     0.748890     0.405578     0.000000  Biso 1.000000     C
    C   1.0     0.297263     0.149483     0.000000  Biso 1.000000     C
    C   1.0     0.797255     0.149482     0.000000  Biso 1.000000     C
    C   1.0     0.339233     0.105232     0.052116  Biso 1.000000     C
    C   1.0     0.839224     0.105232     0.052115  Biso 1.000000     C
    C   1.0     0.336807     0.000000     0.055942  Biso 1.000000     C
    C   1.0     0.836799     0.000000     0.055942  Biso 1.000000     C
    C   1.0     0.255355     0.992726     0.970825  Biso 1.000000     C
    C   1.0     0.755347     0.992726     0.970825  Biso 1.000000     C
    C   1.0     0.254223     0.091109     0.965103  Biso 1.000000     C
    C   1.0     0.754215     0.091109     0.965102  Biso 1.000000     C
    C   1.0     0.376061     0.707023     0.125520  Biso 1.000000     C
    C   1.0     0.876052     0.707022     0.125521  Biso 1.000000     C
    C   1.0     0.219233     0.691555     0.885044  Biso 1.000000     C
    C   1.0     0.719224     0.691555     0.885045  Biso 1.000000     C
    C   1.0     0.222763     0.708158     0.129265  Biso 1.000000     C
    C   1.0     0.722756     0.708158     0.129267  Biso 1.000000     C
    N   1.0     0.048764     0.546928     0.006025  Biso 1.000000     N
    N   1.0     0.548756     0.546928     0.006026  Biso 1.000000     N
    N   1.0     0.045949     0.049315     0.984511  Biso 1.000000     N
    N   1.0     0.545941     0.049314     0.984510  Biso 1.000000     N
    N   1.0     0.298793     0.453063     0.993943  Biso 1.000000     N
    N   1.0     0.798785     0.453063     0.993945  Biso 1.000000     N
    N   1.0     0.295909     0.950681     0.015465  Biso 1.000000     N
    N   1.0     0.795901     0.950681     0.015463  Biso 1.000000     N
    O   1.0     0.097180     0.378741     0.107347  Biso 1.000000     O
    O   1.0     0.597173     0.378741     0.107347  Biso 1.000000     O
    O   1.0     0.116956     0.220908     0.069572  Biso 1.000000     O
    O   1.0     0.616948     0.220908     0.069571  Biso 1.000000     O
    O   1.0     0.119715     0.371420     0.922305  Biso 1.000000     O
    O   1.0     0.619707     0.371420     0.922305  Biso 1.000000     O
    O   1.0     0.102200     0.212646     0.885546  Biso 1.000000     O
    O   1.0     0.602192     0.212646     0.885546  Biso 1.000000     O
    O   1.0     0.493295     0.228443     0.088741  Biso 1.000000     O
    O   1.0     0.993288     0.228443     0.088742  Biso 1.000000     O
    O   1.0     0.475201     0.386992     0.081731  Biso 1.000000     O
    O   1.0     0.975193     0.386992     0.081731  Biso 1.000000     O
    O   1.0     0.497654     0.370991     0.896390  Biso 1.000000     O
    O   1.0     0.997646     0.370991     0.896390  Biso 1.000000     O
    O   1.0     0.477808     0.213248     0.904415  Biso 1.000000     O
    O   1.0     0.977799     0.213248     0.904415  Biso 1.000000     O
    O   1.0     0.347186     0.621243     0.892628  Biso 1.000000     O
    O   1.0     0.847177     0.621243     0.892627  Biso 1.000000     O
    O   1.0     0.366916     0.779063     0.930407  Biso 1.000000     O
    O   1.0     0.866906     0.779064     0.930406  Biso 1.000000     O
    O   1.0     0.369714     0.628552     0.077680  Biso 1.000000     O
    O   1.0     0.869707     0.628552     0.077680  Biso 1.000000     O
    O   1.0     0.352181     0.787345     0.114425  Biso 1.000000     O
    O   1.0     0.852174     0.787345     0.114425  Biso 1.000000     O
    O   1.0     0.243246     0.771570     0.911237  Biso 1.000000     O
    O   1.0     0.743238     0.771570     0.911236  Biso 1.000000     O
    O   1.0     0.225215     0.613023     0.918237  Biso 1.000000     O
    O   1.0     0.725207     0.613022     0.918237  Biso 1.000000     O
    O   1.0     0.247664     0.629008     0.103570  Biso 1.000000     O
    O   1.0     0.747655     0.629008     0.103569  Biso 1.000000     O
    O   1.0     0.227797     0.786776     0.095567  Biso 1.000000     O
    O   1.0     0.727788     0.786776     0.095566  Biso 1.000000     O
   Zn   1.0     0.047423     0.196754     0.985148  Biso 1.000000    Zn
   Zn   1.0     0.547415     0.196754     0.985148  Biso 1.000000    Zn
   Zn   1.0     0.047847     0.400112     0.003406  Biso 1.000000    Zn
   Zn   1.0     0.547839     0.400112     0.003406  Biso 1.000000    Zn
   Zn   1.0     0.297392     0.803240     0.014824  Biso 1.000000    Zn
   Zn   1.0     0.797384     0.803240     0.014824  Biso 1.000000    Zn
   Zn   1.0     0.297857     0.599881     0.996564  Biso 1.000000    Zn
   Zn   1.0     0.797850     0.599881     0.996564  Biso 1.000000    Zn
