#======================================================================

# CRYSTAL DATA

#----------------------------------------------------------------------

data_VESTA_phase_1


_pd_phase_name                         MOF
_cell_length_a                         22.18400
_cell_length_b                         16.18300
_cell_length_c                         17.98700
_cell_angle_alpha                      90.00400
_cell_angle_beta                       91.26500
_cell_angle_gamma                      90.00000
_symmetry_space_group_name_H-M         "P 1"
_symmetry_Int_Tables_number            1

loop_
_symmetry_equiv_pos_as_xyz
   "x, y, z"

loop_
   _atom_site_label
   _atom_site_occupancy
   _atom_site_fract_x
   _atom_site_fract_y
   _atom_site_fract_z
   _atom_site_adp_type
   _atom_site_B_iso_or_equiv
   _atom_site_type_symbol
    H   1.0     0.372580     0.798508     0.881289  Biso 1.000000     H
    H   1.0     0.872654     0.798511     0.881295  Biso 1.000000     H
    H   1.0     0.383113     0.793962     0.119377  Biso 1.000000     H
    H   1.0     0.883048     0.793945     0.119388  Biso 1.000000     H
    H   1.0     0.324454     0.661999     0.120130  Biso 1.000000     H
    H   1.0     0.824388     0.661982     0.120076  Biso 1.000000     H
    H   1.0     0.313555     0.666870     0.881103  Biso 1.000000     H
    H   1.0     0.813605     0.666892     0.881044  Biso 1.000000     H
    H   1.0     0.127351     0.798530     0.118702  Biso 1.000000     H
    H   1.0     0.627425     0.798528     0.118704  Biso 1.000000     H
    H   1.0     0.116966     0.793928     0.880608  Biso 1.000000     H
    H   1.0     0.616902     0.793944     0.880615  Biso 1.000000     H
    H   1.0     0.175627     0.661966     0.879920  Biso 1.000000     H
    H   1.0     0.675561     0.661981     0.879865  Biso 1.000000     H
    H   1.0     0.186400     0.666910     0.118952  Biso 1.000000     H
    H   1.0     0.686450     0.666891     0.118892  Biso 1.000000     H
    H   1.0     0.127356     0.201504     0.118707  Biso 1.000000     H
    H   1.0     0.627429     0.201506     0.118709  Biso 1.000000     H
    H   1.0     0.116961     0.206071     0.880614  Biso 1.000000     H
    H   1.0     0.616897     0.206055     0.880620  Biso 1.000000     H
    H   1.0     0.175621     0.338034     0.879926  Biso 1.000000     H
    H   1.0     0.675556     0.338018     0.879871  Biso 1.000000     H
    H   1.0     0.186404     0.333124     0.118958  Biso 1.000000     H
    H   1.0     0.686454     0.333144     0.118898  Biso 1.000000     H
    H   1.0     0.372583     0.201488     0.881295  Biso 1.000000     H
    H   1.0     0.872657     0.201486     0.881300  Biso 1.000000     H
    H   1.0     0.383109     0.206071     0.119384  Biso 1.000000     H
    H   1.0     0.883044     0.206088     0.119394  Biso 1.000000     H
    H   1.0     0.324449     0.338034     0.120136  Biso 1.000000     H
    H   1.0     0.824384     0.338051     0.120083  Biso 1.000000     H
    H   1.0     0.313558     0.333125     0.881109  Biso 1.000000     H
    H   1.0     0.813609     0.333105     0.881050  Biso 1.000000     H
    H   1.0     0.090947    -0.000003     0.808109  Biso 1.000000     H
    H   1.0     0.590950    -0.000002     0.808104  Biso 1.000000     H
    H   1.0     0.404574    -0.000018     0.801008  Biso 1.000000     H
    H   1.0     0.904578    -0.000011     0.801007  Biso 1.000000     H
    H   1.0     0.096097    -0.000013     0.668100  Biso 1.000000     H
    H   1.0     0.596097     0.000009     0.668095  Biso 1.000000     H
    H   1.0     0.401402    -0.000008     0.660705  Biso 1.000000     H
    H   1.0     0.901410    -0.000022     0.660704  Biso 1.000000     H
    H   1.0     0.409062     0.000013     0.191892  Biso 1.000000     H
    H   1.0     0.909064    -0.000001     0.191893  Biso 1.000000     H
    H   1.0     0.095433    -0.000001     0.198995  Biso 1.000000     H
    H   1.0     0.595438     0.000003     0.198989  Biso 1.000000     H
    H   1.0     0.403914     0.000007     0.331901  Biso 1.000000     H
    H   1.0     0.903914    -0.000009     0.331902  Biso 1.000000     H
    H   1.0     0.098601    -0.000010     0.339298  Biso 1.000000     H
    H   1.0     0.598609    -0.000002     0.339292  Biso 1.000000     H
    C   1.0     0.381134     0.804266     0.000314  Biso 1.000000     C
    C   1.0     0.881144     0.804255     0.000000  Biso 1.000000     C
    C   1.0     0.419529     0.880504    -0.000236  Biso 1.000000     C
    C   1.0     0.919544     0.880490    -0.000204  Biso 1.000000     C
    C   1.0     0.281834     0.576056     0.000000  Biso 1.000000     C
    C   1.0     0.781828     0.576057     0.000000  Biso 1.000000     C
    C   1.0     0.315281     0.655897     0.000000  Biso 1.000000     C
    C   1.0     0.815272     0.655901     0.000000  Biso 1.000000     C
    C   1.0     0.361207     0.768392     0.933267  Biso 1.000000     C
    C   1.0     0.861242     0.768395     0.933258  Biso 1.000000     C
    C   1.0     0.367176     0.765823     0.067576  Biso 1.000000     C
    C   1.0     0.867140     0.765815     0.067569  Biso 1.000000     C
    C   1.0     0.334563     0.692343     0.067724  Biso 1.000000     C
    C   1.0     0.834531     0.692330     0.067684  Biso 1.000000     C
    C   1.0     0.328465     0.695043     0.933425  Biso 1.000000     C
    C   1.0     0.828499     0.695046     0.933381  Biso 1.000000     C
    C   1.0     0.118866     0.804260    -0.000328  Biso 1.000000     C
    C   1.0     0.618871     0.804266    -0.000323  Biso 1.000000     C
    C   1.0     0.080464     0.880486     0.000000  Biso 1.000000     C
    C   1.0     0.580479     0.880501     0.000000  Biso 1.000000     C
    C   1.0     0.218182     0.576061    -0.000461  Biso 1.000000     C
    C   1.0     0.718175     0.576060    -0.000545  Biso 1.000000     C
    C   1.0     0.184738     0.655905    -0.000579  Biso 1.000000     C
    C   1.0     0.684728     0.655902    -0.000639  Biso 1.000000     C
    C   1.0     0.138765     0.768407     0.066738  Biso 1.000000     C
    C   1.0     0.638800     0.768405     0.066727  Biso 1.000000     C
    C   1.0     0.132873     0.765804     0.932427  Biso 1.000000     C
    C   1.0     0.632836     0.765811     0.932418  Biso 1.000000     C
    C   1.0     0.165482     0.692320     0.932313  Biso 1.000000     C
    C   1.0     0.665450     0.692331     0.932270  Biso 1.000000     C
    C   1.0     0.171509     0.695059     0.066615  Biso 1.000000     C
    C   1.0     0.671543     0.695056     0.066569  Biso 1.000000     C
    C   1.0     0.118865     0.195760    -0.000323  Biso 1.000000     C
    C   1.0     0.618871     0.195754    -0.000318  Biso 1.000000     C
    C   1.0     0.080465     0.119526     0.000000  Biso 1.000000     C
    C   1.0     0.580480     0.119512     0.000000  Biso 1.000000     C
    C   1.0     0.218181     0.423959    -0.000457  Biso 1.000000     C
    C   1.0     0.718175     0.423960    -0.000541  Biso 1.000000     C
    C   1.0     0.184737     0.344115    -0.000573  Biso 1.000000     C
    C   1.0     0.684728     0.344118    -0.000633  Biso 1.000000     C
    C   1.0     0.138767     0.231621     0.066744  Biso 1.000000     C
    C   1.0     0.638802     0.231623     0.066732  Biso 1.000000     C
    C   1.0     0.132869     0.234201     0.932433  Biso 1.000000     C
    C   1.0     0.632833     0.234194     0.932423  Biso 1.000000     C
    C   1.0     0.165478     0.307686     0.932319  Biso 1.000000     C
    C   1.0     0.665446     0.307674     0.932275  Biso 1.000000     C
    C   1.0     0.171511     0.304969     0.066621  Biso 1.000000     C
    C   1.0     0.671544     0.304972     0.066575  Biso 1.000000     C
    C   1.0     0.381134     0.195753     0.000320  Biso 1.000000     C
    C   1.0     0.881139     0.195759     0.000328  Biso 1.000000     C
    C   1.0     0.419530     0.119515    -0.000231  Biso 1.000000     C
    C   1.0     0.919545     0.119529    -0.000200  Biso 1.000000     C
    C   1.0     0.281834     0.423956     0.000000  Biso 1.000000     C
    C   1.0     0.781827     0.423955     0.000000  Biso 1.000000     C
    C   1.0     0.315281     0.344114     0.000000  Biso 1.000000     C
    C   1.0     0.815272     0.344111     0.000000  Biso 1.000000     C
    C   1.0     0.361209     0.231611     0.933273  Biso 1.000000     C
    C   1.0     0.861244     0.231608     0.933264  Biso 1.000000     C
    C   1.0     0.367174     0.234204     0.067582  Biso 1.000000     C
    C   1.0     0.867137     0.234212     0.067575  Biso 1.000000     C
    C   1.0     0.334560     0.307684     0.067731  Biso 1.000000     C
    C   1.0     0.834528     0.307697     0.067690  Biso 1.000000     C
    C   1.0     0.328466     0.304959     0.933431  Biso 1.000000     C
    C   1.0     0.828500     0.304956     0.933387  Biso 1.000000     C
    C   1.0     0.050389    -0.000026     0.772777  Biso 1.000000     C
    C   1.0     0.550390     0.000013     0.772773  Biso 1.000000     C
    C   1.0     0.445625     0.000004     0.768794  Biso 1.000000     C
    C   1.0     0.945631    -0.000030     0.768795  Biso 1.000000     C
    C   1.0     0.052939     0.000015     0.695673  Biso 1.000000     C
    C   1.0     0.552940    -0.000022     0.695670  Biso 1.000000     C
    C   1.0     0.498833     0.000028     0.653774  Biso 1.000000     C
    C   1.0     0.998840    -0.000048     0.653776  Biso 1.000000     C
    C   1.0     0.444151    -0.000032     0.691529  Biso 1.000000     C
    C   1.0     0.944158     0.000010     0.691530  Biso 1.000000     C
    C   1.0     0.499447    -0.000030     0.571794  Biso 1.000000     C
    C   1.0     0.999453     0.000010     0.571796  Biso 1.000000     C
    C   1.0     0.449621    -0.000006     0.227223  Biso 1.000000     C
    C   1.0     0.949623     0.000017     0.227225  Biso 1.000000     C
    C   1.0     0.054381     0.000016     0.231207  Biso 1.000000     C
    C   1.0     0.554386    -0.000012     0.231203  Biso 1.000000     C
    C   1.0     0.447072     0.000031     0.304327  Biso 1.000000     C
    C   1.0     0.947072    -0.000035     0.304329  Biso 1.000000     C
    C   1.0     0.001171     0.000019     0.346226  Biso 1.000000     C
    C   1.0     0.501179    -0.000025     0.346222  Biso 1.000000     C
    C   1.0     0.055853    -0.000035     0.308472  Biso 1.000000     C
    C   1.0     0.555860     0.000026     0.308467  Biso 1.000000     C
    C   1.0     0.000558    -0.000053     0.428206  Biso 1.000000     C
    C   1.0     0.500564     0.000036     0.428202  Biso 1.000000     C
    C   1.0     0.312217     0.500009     0.000996  Biso 1.000000     C
    C   1.0     0.812210     0.500009     0.000916  Biso 1.000000     C
    C   1.0     0.187800     0.500007     0.999087  Biso 1.000000     C
    C   1.0     0.687793     0.500007     0.999005  Biso 1.000000     C
    N   1.0     0.497733    -0.000021     0.808661  Biso 1.000000     N
    N   1.0     0.997737     0.000005     0.808663  Biso 1.000000     N
    N   1.0     0.053761    -0.000043     0.538905  Biso 1.000000     N
    N   1.0     0.553763     0.000020     0.538904  Biso 1.000000     N
    N   1.0     0.445676     0.000017     0.534692  Biso 1.000000     N
    N   1.0     0.945680    -0.000041     0.534697  Biso 1.000000     N
    N   1.0     0.002274    -0.000012     0.191338  Biso 1.000000     N
    N   1.0     0.502279     0.000019     0.191336  Biso 1.000000     N
    N   1.0     0.446249    -0.000012     0.461092  Biso 1.000000     N
    N   1.0     0.946250    -0.000011     0.461097  Biso 1.000000     N
    N   1.0     0.054331    -0.000011     0.465305  Biso 1.000000     N
    N   1.0     0.554336    -0.000009     0.465305  Biso 1.000000     N
    O   1.0     0.432760     0.909832     0.936393  Biso 1.000000     O
    O   1.0     0.932771     0.909837     0.936430  Biso 1.000000     O
    O   1.0     0.437307     0.909254     0.062521  Biso 1.000000     O
    O   1.0     0.937300     0.909248     0.062557  Biso 1.000000     O
    O   1.0     0.067236     0.909845     0.063570  Biso 1.000000     O
    O   1.0     0.567248     0.909840     0.063603  Biso 1.000000     O
    O   1.0     0.062709     0.909240     0.937444  Biso 1.000000     O
    O   1.0     0.562702     0.909246     0.937475  Biso 1.000000     O
    O   1.0     0.067238     0.090178     0.063572  Biso 1.000000     O
    O   1.0     0.567250     0.090183     0.063604  Biso 1.000000     O
    O   1.0     0.062710     0.090767     0.937445  Biso 1.000000     O
    O   1.0     0.562703     0.090762     0.937476  Biso 1.000000     O
    O   1.0     0.432762     0.090176     0.936395  Biso 1.000000     O
    O   1.0     0.932773     0.090170     0.936432  Biso 1.000000     O
    O   1.0     0.437308     0.090770     0.062524  Biso 1.000000     O
    O   1.0     0.937300     0.090776     0.062559  Biso 1.000000     O
   Zn   1.0     0.497535    -0.000005     0.924044  Biso 1.000000    Zn
   Zn   1.0     0.997544    -0.000005     0.924048  Biso 1.000000    Zn
   Zn   1.0     0.002468     0.000002     0.075954  Biso 1.000000    Zn
   Zn   1.0     0.502476     0.000002     0.075952  Biso 1.000000    Zn
   Br   1.0     0.398971     0.500005     0.000000  Biso 1.000000    Br
   Br   1.0     0.898964     0.500005     0.000000  Biso 1.000000    Br
   Br   1.0     0.101045     0.500011    -0.001263  Biso 1.000000    Br
   Br   1.0     0.601038     0.500010    -0.001305  Biso 1.000000    Br
