#======================================================================

# CRYSTAL DATA

#----------------------------------------------------------------------

data_VESTA_phase_1


_pd_phase_name                         MOF
_cell_length_a                         23.41600
_cell_length_b                         15.73400
_cell_length_c                         18.04600
_cell_angle_alpha                      88.64000
_cell_angle_beta                       89.84600
_cell_angle_gamma                      90.01000
_symmetry_space_group_name_H-M         "P 1"
_symmetry_Int_Tables_number            1

loop_
_symmetry_equiv_pos_as_xyz
   "x, y, z"

loop_
   _atom_site_label
   _atom_site_occupancy
   _atom_site_fract_x
   _atom_site_fract_y
   _atom_site_fract_z
   _atom_site_adp_type
   _atom_site_B_iso_or_equiv
   _atom_site_type_symbol
    H   1.0     0.037037     0.488297     0.195720  Biso 1.000000     H
    H   1.0     0.537034     0.488651     0.196256  Biso 1.000000     H
    H   1.0     0.222023     0.501867     0.195132  Biso 1.000000     H
    H   1.0     0.722031     0.501680     0.195609  Biso 1.000000     H
    H   1.0     0.485063     0.001514     0.852973  Biso 1.000000     H
    H   1.0     0.985079     0.001914     0.852373  Biso 1.000000     H
    H   1.0     0.274688     0.007782     0.850364  Biso 1.000000     H
    H   1.0     0.774704     0.008099     0.850534  Biso 1.000000     H
    H   1.0     0.201328     0.758680     0.946628  Biso 1.000000     H
    H   1.0     0.701320     0.759493     0.946921  Biso 1.000000     H
    H   1.0     0.057118     0.245589     0.949493  Biso 1.000000     H
    H   1.0     0.556954     0.245346     0.950319  Biso 1.000000     H
    H   1.0     0.261280     0.889799     0.942037  Biso 1.000000     H
    H   1.0     0.761461     0.890434     0.942164  Biso 1.000000     H
    H   1.0     0.496693     0.114889     0.945143  Biso 1.000000     H
    H   1.0     0.996834     0.115101     0.944461  Biso 1.000000     H
    H   1.0     0.291139     0.665520     0.757370  Biso 1.000000     H
    H   1.0     0.790725     0.666041     0.757457  Biso 1.000000     H
    H   1.0     0.470904     0.347865     0.758399  Biso 1.000000     H
    H   1.0     0.970665     0.348217     0.757915  Biso 1.000000     H
    H   1.0     0.355599     0.791298     0.758316  Biso 1.000000     H
    H   1.0     0.855320     0.791693     0.758168  Biso 1.000000     H
    H   1.0     0.406132     0.222392     0.758449  Biso 1.000000     H
    H   1.0     0.905881     0.222695     0.758136  Biso 1.000000     H
    H   1.0     0.040876     0.492149     0.058067  Biso 1.000000     H
    H   1.0     0.540848     0.492614     0.058594  Biso 1.000000     H
    H   1.0     0.218338     0.504527     0.057495  Biso 1.000000     H
    H   1.0     0.718326     0.504493     0.057998  Biso 1.000000     H
    H   1.0     0.054093     0.753347     0.762278  Biso 1.000000     H
    H   1.0     0.554074     0.753073     0.762763  Biso 1.000000     H
    H   1.0     0.207110     0.262699     0.760949  Biso 1.000000     H
    H   1.0     0.707019     0.263331     0.761553  Biso 1.000000     H
    H   1.0     0.465584     0.664889     0.959052  Biso 1.000000     H
    H   1.0     0.965811     0.665211     0.958738  Biso 1.000000     H
    H   1.0     0.293014     0.337420     0.959386  Biso 1.000000     H
    H   1.0     0.793378     0.337835     0.959726  Biso 1.000000     H
    H   1.0     0.492898     0.882870     0.758165  Biso 1.000000     H
    H   1.0     0.992910     0.883117     0.757772  Biso 1.000000     H
    H   1.0     0.268215     0.133022     0.756108  Biso 1.000000     H
    H   1.0     0.767985     0.133556     0.756452  Biso 1.000000     H
    H   1.0     0.402247     0.790571     0.951927  Biso 1.000000     H
    H   1.0     0.902516     0.790916     0.951773  Biso 1.000000     H
    H   1.0     0.356266     0.212080     0.952130  Biso 1.000000     H
    H   1.0     0.856527     0.212430     0.952179  Biso 1.000000     H
    H   1.0     0.049599     0.432316     0.528443  Biso 1.000000     H
    H   1.0     0.549601     0.432473     0.529063  Biso 1.000000     H
    H   1.0     0.208591     0.571826     0.521388  Biso 1.000000     H
    H   1.0     0.708795     0.571486     0.522061  Biso 1.000000     H
    H   1.0     0.052307     0.441572     0.666956  Biso 1.000000     H
    H   1.0     0.552291     0.441744     0.667541  Biso 1.000000     H
    H   1.0     0.206019     0.571741     0.660395  Biso 1.000000     H
    H   1.0     0.706149     0.571539     0.661022  Biso 1.000000     H
    H   1.0     0.287887     0.510373     0.805066  Biso 1.000000     H
    H   1.0     0.787852     0.510969     0.804887  Biso 1.000000     H
    H   1.0     0.472841     0.498965     0.805415  Biso 1.000000     H
    H   1.0     0.972807     0.499439     0.805240  Biso 1.000000     H
    H   1.0     0.234287     0.997842     0.146874  Biso 1.000000     H
    H   1.0     0.734351     0.997759     0.146876  Biso 1.000000     H
    H   1.0     0.023903     0.991559     0.149282  Biso 1.000000     H
    H   1.0     0.523958     0.991560     0.149867  Biso 1.000000     H
    H   1.0     0.450871     0.240483     0.053914  Biso 1.000000     H
    H   1.0     0.950641     0.240100     0.053138  Biso 1.000000     H
    H   1.0     0.306343     0.753261     0.050156  Biso 1.000000     H
    H   1.0     0.806216     0.753050     0.050159  Biso 1.000000     H
    H   1.0     0.010952     0.109381     0.057445  Biso 1.000000     H
    H   1.0     0.510950     0.109546     0.058140  Biso 1.000000     H
    H   1.0     0.245929     0.883648     0.054599  Biso 1.000000     H
    H   1.0     0.745854     0.883490     0.054641  Biso 1.000000     H
    H   1.0     0.039251     0.333279     0.242649  Biso 1.000000     H
    H   1.0     0.539704     0.333286     0.243396  Biso 1.000000     H
    H   1.0     0.220425     0.652639     0.243428  Biso 1.000000     H
    H   1.0     0.720456     0.652602     0.243618  Biso 1.000000     H
    H   1.0     0.104188     0.207987     0.241409  Biso 1.000000     H
    H   1.0     0.604472     0.207792     0.242009  Biso 1.000000     H
    H   1.0     0.155339     0.777931     0.242635  Biso 1.000000     H
    H   1.0     0.655427     0.777960     0.242885  Biso 1.000000     H
    H   1.0     0.291209     0.506338     0.942903  Biso 1.000000     H
    H   1.0     0.791163     0.506705     0.942702  Biso 1.000000     H
    H   1.0     0.468729     0.496109     0.943152  Biso 1.000000     H
    H   1.0     0.968685     0.496468     0.942969  Biso 1.000000     H
    H   1.0     0.302661     0.246117     0.238113  Biso 1.000000     H
    H   1.0     0.802754     0.246187     0.238081  Biso 1.000000     H
    H   1.0     0.456307     0.736542     0.240343  Biso 1.000000     H
    H   1.0     0.956243     0.736558     0.240012  Biso 1.000000     H
    H   1.0     0.215210     0.335384     0.042009  Biso 1.000000     H
    H   1.0     0.715058     0.335367     0.042147  Biso 1.000000     H
    H   1.0     0.042953     0.660909     0.041856  Biso 1.000000     H
    H   1.0     0.542913     0.661005     0.042089  Biso 1.000000     H
    H   1.0     0.241718     0.116040     0.241723  Biso 1.000000     H
    H   1.0     0.741882     0.116023     0.241802  Biso 1.000000     H
    H   1.0     0.017058     0.866591     0.244070  Biso 1.000000     H
    H   1.0     0.517130     0.866562     0.244419  Biso 1.000000     H
    H   1.0     0.152064     0.209437     0.048205  Biso 1.000000     H
    H   1.0     0.651965     0.209328     0.048462  Biso 1.000000     H
    H   1.0     0.105885     0.786667     0.048330  Biso 1.000000     H
    H   1.0     0.605892     0.786709     0.048603  Biso 1.000000     H
    H   1.0     0.289445     0.527988     0.475680  Biso 1.000000     H
    H   1.0     0.789366     0.527596     0.475434  Biso 1.000000     H
    H   1.0     0.469602     0.468356     0.475802  Biso 1.000000     H
    H   1.0     0.969701     0.469108     0.475656  Biso 1.000000     H
    H   1.0     0.292335     0.523128     0.337353  Biso 1.000000     H
    H   1.0     0.792301     0.522578     0.337141  Biso 1.000000     H
    H   1.0     0.464706     0.462539     0.337675  Biso 1.000000     H
    H   1.0     0.964845     0.463056     0.337543  Biso 1.000000     H
    C   1.0     0.242534     0.703781     0.852500  Biso 1.000000     C
    C   1.0     0.742355     0.704416     0.852735  Biso 1.000000     C
    C   1.0     0.017628     0.305079     0.854175  Biso 1.000000     C
    C   1.0     0.517677     0.304839     0.854839  Biso 1.000000     C
    C   1.0     0.204966     0.626856     0.854174  Biso 1.000000     C
    C   1.0     0.704855     0.627423     0.854620  Biso 1.000000     C
    C   1.0     0.055258     0.381761     0.856249  Biso 1.000000     C
    C   1.0     0.555305     0.381581     0.856906  Biso 1.000000     C
    C   1.0     0.312968     0.849297     0.850681  Biso 1.000000     C
    C   1.0     0.812944     0.849742     0.850696  Biso 1.000000     C
    C   1.0     0.446870     0.159886     0.852217  Biso 1.000000     C
    C   1.0     0.946845     0.160184     0.851731  Biso 1.000000     C
    C   1.0     0.443240     0.845892     0.854638  Biso 1.000000     C
    C   1.0     0.943320     0.846199     0.854329  Biso 1.000000     C
    C   1.0     0.316572     0.163363     0.853711  Biso 1.000000     C
    C   1.0     0.816598     0.163772     0.853886  Biso 1.000000     C
    C   1.0     0.078077     0.492005     0.167373  Biso 1.000000     C
    C   1.0     0.578072     0.492267     0.167898  Biso 1.000000     C
    C   1.0     0.181027     0.499597     0.167000  Biso 1.000000     C
    C   1.0     0.681021     0.499553     0.167509  Biso 1.000000     C
    C   1.0     0.409062     0.925374     0.852248  Biso 1.000000     C
    C   1.0     0.909105     0.925685     0.851965  Biso 1.000000     C
    C   1.0     0.350684     0.083911     0.851584  Biso 1.000000     C
    C   1.0     0.850678     0.084282     0.851543  Biso 1.000000     C
    C   1.0     0.053185     0.625532     0.862355  Biso 1.000000     C
    C   1.0     0.553117     0.625443     0.862898  Biso 1.000000     C
    C   1.0     0.206788     0.383575     0.862683  Biso 1.000000     C
    C   1.0     0.706906     0.384080     0.863176  Biso 1.000000     C
    C   1.0     0.014058     0.700926     0.860446  Biso 1.000000     C
    C   1.0     0.513930     0.700703     0.860875  Biso 1.000000     C
    C   1.0     0.245955     0.308365     0.860153  Biso 1.000000     C
    C   1.0     0.746088     0.308891     0.860628  Biso 1.000000     C
    C   1.0     0.438486     0.002935     0.852331  Biso 1.000000     C
    C   1.0     0.938500     0.003272     0.851905  Biso 1.000000     C
    C   1.0     0.321267     0.006351     0.850838  Biso 1.000000     C
    C   1.0     0.821284     0.006712     0.850864  Biso 1.000000     C
    C   1.0     0.348675     0.927134     0.851199  Biso 1.000000     C
    C   1.0     0.848710     0.927500     0.851111  Biso 1.000000     C
    C   1.0     0.411078     0.082138     0.852052  Biso 1.000000     C
    C   1.0     0.911067     0.082456     0.851719  Biso 1.000000     C
    C   1.0     0.234393     0.767246     0.904582  Biso 1.000000     C
    C   1.0     0.734338     0.767940     0.904798  Biso 1.000000     C
    C   1.0     0.024740     0.239159     0.906807  Biso 1.000000     C
    C   1.0     0.524662     0.238929     0.907519  Biso 1.000000     C
    C   1.0     0.268308     0.839808     0.902294  Biso 1.000000     C
    C   1.0     0.768346     0.840399     0.902418  Biso 1.000000     C
    C   1.0     0.490558     0.166720     0.904882  Biso 1.000000     C
    C   1.0     0.990631     0.166959     0.904251  Biso 1.000000     C
    C   1.0     0.285656     0.714099     0.798841  Biso 1.000000     C
    C   1.0     0.785382     0.714636     0.798939  Biso 1.000000     C
    C   1.0     0.475499     0.297286     0.800247  Biso 1.000000     C
    C   1.0     0.975337     0.297593     0.799710  Biso 1.000000     C
    C   1.0     0.321301     0.784906     0.799030  Biso 1.000000     C
    C   1.0     0.821105     0.785357     0.799005  Biso 1.000000     C
    C   1.0     0.439667     0.226716     0.799973  Biso 1.000000     C
    C   1.0     0.939509     0.227022     0.799532  Biso 1.000000     C
    C   1.0     0.080013     0.493601     0.090385  Biso 1.000000     C
    C   1.0     0.579995     0.493945     0.090902  Biso 1.000000     C
    C   1.0     0.179179     0.501623     0.090065  Biso 1.000000     C
    C   1.0     0.679165     0.501683     0.090570  Biso 1.000000     C
    C   1.0     0.129538     0.495188     0.206754  Biso 1.000000     C
    C   1.0     0.629539     0.495258     0.207288  Biso 1.000000     C
    C   1.0     0.020988     0.762718     0.803788  Biso 1.000000     C
    C   1.0     0.520921     0.762457     0.804204  Biso 1.000000     C
    C   1.0     0.239708     0.250467     0.802792  Biso 1.000000     C
    C   1.0     0.739694     0.251016     0.803274  Biso 1.000000     C
    C   1.0     0.471036     0.711812     0.914222  Biso 1.000000     C
    C   1.0     0.971225     0.712117     0.913887  Biso 1.000000     C
    C   1.0     0.288131     0.293556     0.914023  Biso 1.000000     C
    C   1.0     0.788364     0.294011     0.914351  Biso 1.000000     C
    C   1.0     0.129670     0.494596     0.288308  Biso 1.000000     C
    C   1.0     0.629699     0.494595     0.288857  Biso 1.000000     C
    C   1.0     0.486646     0.834577     0.801825  Biso 1.000000     C
    C   1.0     0.986687     0.834846     0.801459  Biso 1.000000     C
    C   1.0     0.273942     0.178383     0.800289  Biso 1.000000     C
    C   1.0     0.773859     0.178879     0.800628  Biso 1.000000     C
    C   1.0     0.435573     0.782909     0.910331  Biso 1.000000     C
    C   1.0     0.935761     0.783233     0.910069  Biso 1.000000     C
    C   1.0     0.323550     0.222635     0.910054  Biso 1.000000     C
    C   1.0     0.823728     0.223028     0.910221  Biso 1.000000     C
    C   1.0     0.129482     0.497889     0.431941  Biso 1.000000     C
    C   1.0     0.629566     0.497801     0.432521  Biso 1.000000     C
    C   1.0     0.129148     0.501517     0.513540  Biso 1.000000     C
    C   1.0     0.629244     0.501431     0.514139  Biso 1.000000     C
    C   1.0     0.084634     0.464634     0.555314  Biso 1.000000     C
    C   1.0     0.584679     0.464698     0.555927  Biso 1.000000     C
    C   1.0     0.173536     0.541508     0.551456  Biso 1.000000     C
    C   1.0     0.673670     0.541298     0.552090  Biso 1.000000     C
    C   1.0     0.085968     0.468943     0.632062  Biso 1.000000     C
    C   1.0     0.585997     0.469043     0.632681  Biso 1.000000     C
    C   1.0     0.172228     0.542351     0.628393  Biso 1.000000     C
    C   1.0     0.672327     0.542208     0.629035  Biso 1.000000     C
    C   1.0     0.491660     0.295261     0.148104  Biso 1.000000     C
    C   1.0     0.991296     0.295057     0.147346  Biso 1.000000     C
    C   1.0     0.267008     0.694647     0.146279  Biso 1.000000     C
    C   1.0     0.766960     0.694530     0.146368  Biso 1.000000     C
    C   1.0     0.454065     0.372186     0.146286  Biso 1.000000     C
    C   1.0     0.953608     0.371880     0.145585  Biso 1.000000     C
    C   1.0     0.304626     0.617847     0.144596  Biso 1.000000     C
    C   1.0     0.804584     0.617749     0.144629  Biso 1.000000     C
    C   1.0     0.062139     0.149970     0.148900  Biso 1.000000     C
    C   1.0     0.562272     0.149966     0.149529  Biso 1.000000     C
    C   1.0     0.196073     0.839480     0.148113  Biso 1.000000     C
    C   1.0     0.696086     0.839410     0.148264  Biso 1.000000     C
    C   1.0     0.192509     0.153547     0.145356  Biso 1.000000     C
    C   1.0     0.692560     0.153487     0.145523  Biso 1.000000     C
    C   1.0     0.065829     0.835841     0.146576  Biso 1.000000     C
    C   1.0     0.565861     0.835842     0.146888  Biso 1.000000     C
    C   1.0     0.328789     0.507144     0.833508  Biso 1.000000     C
    C   1.0     0.828758     0.507660     0.833313  Biso 1.000000     C
    C   1.0     0.431765     0.500691     0.833683  Biso 1.000000     C
    C   1.0     0.931729     0.501148     0.833509  Biso 1.000000     C
    C   1.0     0.158316     0.074022     0.147437  Biso 1.000000     C
    C   1.0     0.658387     0.073953     0.147695  Biso 1.000000     C
    C   1.0     0.099885     0.915404     0.148341  Biso 1.000000     C
    C   1.0     0.599928     0.915381     0.148677  Biso 1.000000     C
    C   1.0     0.302082     0.374577     0.138763  Biso 1.000000     C
    C   1.0     0.801988     0.374636     0.138768  Biso 1.000000     C
    C   1.0     0.456483     0.614968     0.139296  Biso 1.000000     C
    C   1.0     0.956494     0.614852     0.139113  Biso 1.000000     C
    C   1.0     0.262988     0.299129     0.140207  Biso 1.000000     C
    C   1.0     0.762949     0.299133     0.140251  Biso 1.000000     C
    C   1.0     0.495554     0.690362     0.141329  Biso 1.000000     C
    C   1.0     0.995533     0.690303     0.141058  Biso 1.000000     C
    C   1.0     0.187706     0.996443     0.147455  Biso 1.000000     C
    C   1.0     0.687769     0.996376     0.147592  Biso 1.000000     C
    C   1.0     0.070484     0.992974     0.148835  Biso 1.000000     C
    C   1.0     0.570539     0.992952     0.149311  Biso 1.000000     C
    C   1.0     0.097917     0.072215     0.148396  Biso 1.000000     C
    C   1.0     0.597994     0.072170     0.148865  Biso 1.000000     C
    C   1.0     0.160280     0.917225     0.147914  Biso 1.000000     C
    C   1.0     0.660322     0.917176     0.148115  Biso 1.000000     C
    C   1.0     0.483796     0.231889     0.095905  Biso 1.000000     C
    C   1.0     0.983558     0.231639     0.095158  Biso 1.000000     C
    C   1.0     0.273989     0.760041     0.093049  Biso 1.000000     C
    C   1.0     0.773907     0.759888     0.093100  Biso 1.000000     C
    C   1.0     0.017683     0.159315     0.097287  Biso 1.000000     C
    C   1.0     0.517784     0.159445     0.097986  Biso 1.000000     C
    C   1.0     0.239813     0.832196     0.095279  Biso 1.000000     C
    C   1.0     0.739763     0.832069     0.095356  Biso 1.000000     C
    C   1.0     0.034226     0.284862     0.200982  Biso 1.000000     C
    C   1.0     0.534578     0.284908     0.201713  Biso 1.000000     C
    C   1.0     0.224795     0.702707     0.201044  Biso 1.000000     C
    C   1.0     0.724807     0.702640     0.201204  Biso 1.000000     C
    C   1.0     0.070071     0.214292     0.200671  Biso 1.000000     C
    C   1.0     0.570323     0.214223     0.201330  Biso 1.000000     C
    C   1.0     0.188886     0.773186     0.200935  Biso 1.000000     C
    C   1.0     0.688928     0.773153     0.201129  Biso 1.000000     C
    C   1.0     0.330449     0.505387     0.910487  Biso 1.000000     C
    C   1.0     0.830409     0.505803     0.910296  Biso 1.000000     C
    C   1.0     0.429671     0.498565     0.910629  Biso 1.000000     C
    C   1.0     0.929623     0.498944     0.910456  Biso 1.000000     C
    C   1.0     0.380390     0.504665     0.794037  Biso 1.000000     C
    C   1.0     0.880361     0.505176     0.793848  Biso 1.000000     C
    C   1.0     0.269764     0.236942     0.196514  Biso 1.000000     C
    C   1.0     0.769820     0.236957     0.196543  Biso 1.000000     C
    C   1.0     0.489019     0.748647     0.198390  Biso 1.000000     C
    C   1.0     0.988969     0.748640     0.198075  Biso 1.000000     C
    C   1.0     0.220467     0.288189     0.086626  Biso 1.000000     C
    C   1.0     0.720380     0.288159     0.086741  Biso 1.000000     C
    C   1.0     0.037842     0.705020     0.087024  Biso 1.000000     C
    C   1.0     0.537831     0.705093     0.087278  Biso 1.000000     C
    C   1.0     0.380670     0.505711     0.712448  Biso 1.000000     C
    C   1.0     0.880653     0.506228     0.712256  Biso 1.000000     C
    C   1.0     0.235610     0.164646     0.198341  Biso 1.000000     C
    C   1.0     0.735711     0.164620     0.198427  Biso 1.000000     C
    C   1.0     0.023046     0.820953     0.200126  Biso 1.000000     C
    C   1.0     0.523095     0.820940     0.200458  Biso 1.000000     C
    C   1.0     0.185107     0.216907     0.089983  Biso 1.000000     C
    C   1.0     0.685063     0.216834     0.090161  Biso 1.000000     C
    C   1.0     0.073077     0.776203     0.090535  Biso 1.000000     C
    C   1.0     0.573091     0.776240     0.090815  Biso 1.000000     C
    C   1.0     0.380286     0.502683     0.568943  Biso 1.000000     C
    C   1.0     0.880285     0.503009     0.568752  Biso 1.000000     C
    C   1.0     0.379611     0.498753     0.487289  Biso 1.000000     C
    C   1.0     0.879622     0.498948     0.487104  Biso 1.000000     C
    C   1.0     0.329180     0.513904     0.447377  Biso 1.000000     C
    C   1.0     0.829153     0.513718     0.447173  Biso 1.000000     C
    C   1.0     0.429413     0.480064     0.447504  Biso 1.000000     C
    C   1.0     0.929482     0.480508     0.447342  Biso 1.000000     C
    C   1.0     0.330352     0.510627     0.370545  Biso 1.000000     C
    C   1.0     0.830348     0.510343     0.370347  Biso 1.000000     C
    C   1.0     0.427122     0.477336     0.370700  Biso 1.000000     C
    C   1.0     0.927210     0.477652     0.370544  Biso 1.000000     C
    N   1.0     0.129600     0.498773     0.052211  Biso 1.000000     N
    N   1.0     0.629581     0.499043     0.052714  Biso 1.000000     N
    N   1.0     0.178669     0.516990     0.322743  Biso 1.000000     N
    N   1.0     0.678717     0.516920     0.323284  Biso 1.000000     N
    N   1.0     0.081201     0.470632     0.324527  Biso 1.000000     N
    N   1.0     0.581253     0.470579     0.325107  Biso 1.000000     N
    N   1.0     0.178727     0.517748     0.396115  Biso 1.000000     N
    N   1.0     0.678803     0.517642     0.396662  Biso 1.000000     N
    N   1.0     0.080968     0.473443     0.397871  Biso 1.000000     N
    N   1.0     0.581050     0.473343     0.398457  Biso 1.000000     N
    N   1.0     0.129155     0.506760     0.668049  Biso 1.000000     N
    N   1.0     0.629200     0.506781     0.668707  Biso 1.000000     N
    N   1.0     0.379948     0.500805     0.948565  Biso 1.000000     N
    N   1.0     0.879897     0.501144     0.948392  Biso 1.000000     N
    N   1.0     0.429308     0.481652     0.677736  Biso 1.000000     N
    N   1.0     0.929313     0.482214     0.677566  Biso 1.000000     N
    N   1.0     0.332701     0.532027     0.676714  Biso 1.000000     N
    N   1.0     0.832672     0.532436     0.676489  Biso 1.000000     N
    N   1.0     0.429150     0.480551     0.604361  Biso 1.000000     N
    N   1.0     0.929166     0.481028     0.604195  Biso 1.000000     N
    N   1.0     0.332447     0.529879     0.603337  Biso 1.000000     N
    N   1.0     0.832429     0.530197     0.603114  Biso 1.000000     N
    N   1.0     0.378479     0.492619     0.332802  Biso 1.000000     N
    N   1.0     0.878530     0.492577     0.332631  Biso 1.000000     N
    O   1.0     0.180075     0.607954     0.915309  Biso 1.000000     O
    O   1.0     0.679913     0.608751     0.915762  Biso 1.000000     O
    O   1.0     0.080108     0.396751     0.917299  Biso 1.000000     O
    O   1.0     0.580117     0.396739     0.917954  Biso 1.000000     O
    O   1.0     0.057753     0.581847     0.922578  Biso 1.000000     O
    O   1.0     0.557722     0.581874     0.923185  Biso 1.000000     O
    O   1.0     0.201922     0.422871     0.923461  Biso 1.000000     O
    O   1.0     0.702001     0.423483     0.923899  Biso 1.000000     O
    O   1.0     0.200531     0.585533     0.794345  Biso 1.000000     O
    O   1.0     0.700550     0.585736     0.794974  Biso 1.000000     O
    O   1.0     0.059679     0.426971     0.796747  Biso 1.000000     O
    O   1.0     0.559722     0.426697     0.797328  Biso 1.000000     O
    O   1.0     0.079769     0.610734     0.802174  Biso 1.000000     O
    O   1.0     0.579765     0.610657     0.802763  Biso 1.000000     O
    O   1.0     0.180521     0.402666     0.802677  Biso 1.000000     O
    O   1.0     0.680596     0.402992     0.803156  Biso 1.000000     O
    O   1.0     0.428996     0.389997     0.085196  Biso 1.000000     O
    O   1.0     0.928064     0.389330     0.084751  Biso 1.000000     O
    O   1.0     0.330342     0.603119     0.083903  Biso 1.000000     O
    O   1.0     0.830339     0.603139     0.083934  Biso 1.000000     O
    O   1.0     0.307468     0.418005     0.078473  Biso 1.000000     O
    O   1.0     0.807285     0.418121     0.078506  Biso 1.000000     O
    O   1.0     0.452007     0.574974     0.078816  Biso 1.000000     O
    O   1.0     0.952056     0.574701     0.078702  Biso 1.000000     O
    O   1.0     0.449783     0.414401     0.205635  Biso 1.000000     O
    O   1.0     0.949733     0.414464     0.204768  Biso 1.000000     O
    O   1.0     0.308076     0.572311     0.203987  Biso 1.000000     O
    O   1.0     0.808031     0.572122     0.203965  Biso 1.000000     O
    O   1.0     0.327770     0.389511     0.199421  Biso 1.000000     O
    O   1.0     0.827733     0.389522     0.199402  Biso 1.000000     O
    O   1.0     0.429957     0.596479     0.199437  Biso 1.000000     O
    O   1.0     0.929943     0.596486     0.199259  Biso 1.000000     O
   Zn   1.0     0.129940     0.507098     0.782880  Biso 1.000000    Zn
   Zn   1.0     0.629930     0.507116     0.783747  Biso 1.000000    Zn
   Zn   1.0     0.129919     0.502372     0.937899  Biso 1.000000    Zn
   Zn   1.0     0.629920     0.502830     0.938368  Biso 1.000000    Zn
   Zn   1.0     0.378440     0.492593     0.218390  Biso 1.000000    Zn
   Zn   1.0     0.878444     0.492556     0.218266  Biso 1.000000    Zn
   Zn   1.0     0.379862     0.496756     0.062730  Biso 1.000000    Zn
   Zn   1.0     0.879757     0.496785     0.062614  Biso 1.000000    Zn
