#======================================================================

# CRYSTAL DATA

#----------------------------------------------------------------------

data_VESTA_phase_1


_pd_phase_name                         MOF
_cell_length_a                         12.12400
_cell_length_b                         15.26400
_cell_length_c                         15.91600
_cell_angle_alpha                      89.96200
_cell_angle_beta                       89.99800
_cell_angle_gamma                      89.98600
_symmetry_space_group_name_H-M         "P 1"
_symmetry_Int_Tables_number            1

loop_
_symmetry_equiv_pos_as_xyz
   "x, y, z"

loop_
   _atom_site_label
   _atom_site_occupancy
   _atom_site_fract_x
   _atom_site_fract_y
   _atom_site_fract_z
   _atom_site_adp_type
   _atom_site_B_iso_or_equiv
   _atom_site_type_symbol
    H   1.0     0.644975     0.621726     0.900516  Biso 1.000000     H
    H   1.0     0.715088     0.914416     0.782084  Biso 1.000000     H
    H   1.0     0.531796     0.672252     0.776506  Biso 1.000000     H
    H   1.0     0.818347     0.855305     0.905964  Biso 1.000000     H
    H   1.0     0.355086     0.378180     0.900407  Biso 1.000000     H
    H   1.0     0.284686     0.085612     0.782178  Biso 1.000000     H
    H   1.0     0.468238     0.327655     0.776444  Biso 1.000000     H
    H   1.0     0.181454     0.144717     0.906003  Biso 1.000000     H
    H   1.0     0.855100     0.121780     0.599689  Biso 1.000000     H
    H   1.0     0.784678     0.414423     0.717805  Biso 1.000000     H
    H   1.0     0.968276     0.172333     0.723604  Biso 1.000000     H
    H   1.0     0.681415     0.355287     0.594040  Biso 1.000000     H
    H   1.0     0.144920     0.878383     0.599538  Biso 1.000000     H
    H   1.0     0.215133     0.585630     0.717855  Biso 1.000000     H
    H   1.0     0.031716     0.827806     0.723509  Biso 1.000000     H
    H   1.0     0.318410     0.644793     0.594024  Biso 1.000000     H
    H   1.0     0.355023     0.378297     0.099503  Biso 1.000000     H
    H   1.0     0.284829     0.085629     0.217953  Biso 1.000000     H
    H   1.0     0.468236     0.327737     0.223486  Biso 1.000000     H
    H   1.0     0.181542     0.144770     0.094102  Biso 1.000000     H
    H   1.0     0.644899     0.621708     0.099660  Biso 1.000000     H
    H   1.0     0.715234     0.914316     0.217820  Biso 1.000000     H
    H   1.0     0.531730     0.672255     0.223611  Biso 1.000000     H
    H   1.0     0.818479     0.855192     0.094012  Biso 1.000000     H
    H   1.0     0.144864     0.878178     0.400348  Biso 1.000000     H
    H   1.0     0.215253     0.585531     0.282229  Biso 1.000000     H
    H   1.0     0.031715     0.827652     0.276413  Biso 1.000000     H
    H   1.0     0.318493     0.644645     0.406017  Biso 1.000000     H
    H   1.0     0.855073     0.121714     0.400539  Biso 1.000000     H
    H   1.0     0.784760     0.414408     0.282122  Biso 1.000000     H
    H   1.0     0.968256     0.172264     0.276552  Biso 1.000000     H
    H   1.0     0.681503     0.355269     0.405975  Biso 1.000000     H
    C   1.0     0.615510     0.797444     0.769040  Biso 1.000000     C
    C   1.0     0.557897     0.827908     0.694234  Biso 1.000000     C
    C   1.0     0.655298     0.686580     0.872659  Biso 1.000000     C
    C   1.0     0.696464     0.849760     0.807279  Biso 1.000000     C
    C   1.0     0.594416     0.714629     0.803879  Biso 1.000000     C
    C   1.0     0.753368     0.817223     0.876025  Biso 1.000000     C
    C   1.0     0.384387     0.202523     0.769058  Biso 1.000000     C
    C   1.0     0.441996     0.172058     0.694287  Biso 1.000000     C
    C   1.0     0.344693     0.313352     0.872595  Biso 1.000000     C
    C   1.0     0.303366     0.150241     0.807326  Biso 1.000000     C
    C   1.0     0.405561     0.285305     0.803839  Biso 1.000000     C
    C   1.0     0.246480     0.182775     0.876044  Biso 1.000000     C
    C   1.0     0.884409     0.297490     0.730964  Biso 1.000000     C
    C   1.0     0.942020     0.327955     0.805726  Biso 1.000000     C
    C   1.0     0.844698     0.186622     0.627478  Biso 1.000000     C
    C   1.0     0.803365     0.349775     0.692685  Biso 1.000000     C
    C   1.0     0.905582     0.214688     0.696206  Biso 1.000000     C
    C   1.0     0.746459     0.317221     0.623995  Biso 1.000000     C
    C   1.0     0.115490     0.702605     0.730941  Biso 1.000000     C
    C   1.0     0.057875     0.672115     0.805735  Biso 1.000000     C
    C   1.0     0.155266     0.813518     0.627374  Biso 1.000000     C
    C   1.0     0.196487     0.650301     0.692690  Biso 1.000000     C
    C   1.0     0.094372     0.785438     0.696131  Biso 1.000000     C
    C   1.0     0.253400     0.682868     0.623968  Biso 1.000000     C
    C   1.0     0.384472     0.202569     0.230974  Biso 1.000000     C
    C   1.0     0.442100     0.172090     0.305771  Biso 1.000000     C
    C   1.0     0.344686     0.313448     0.127365  Biso 1.000000     C
    C   1.0     0.303474     0.150279     0.192753  Biso 1.000000     C
    C   1.0     0.405583     0.285379     0.196129  Biso 1.000000     C
    C   1.0     0.246554     0.182834     0.124020  Biso 1.000000     C
    C   1.0     0.615553     0.797398     0.230970  Biso 1.000000     C
    C   1.0     0.557934     0.827885     0.305730  Biso 1.000000     C
    C   1.0     0.655277     0.686543     0.127460  Biso 1.000000     C
    C   1.0     0.696564     0.849679     0.192686  Biso 1.000000     C
    C   1.0     0.594397     0.714605     0.196205  Biso 1.000000     C
    C   1.0     0.753462     0.817132     0.123979  Biso 1.000000     C
    C   1.0     0.115559     0.702483     0.269061  Biso 1.000000     C
    C   1.0     0.057968     0.672033     0.194286  Biso 1.000000     C
    C   1.0     0.155260     0.813334     0.372561  Biso 1.000000     C
    C   1.0     0.196577     0.650181     0.307349  Biso 1.000000     C
    C   1.0     0.094392     0.785286     0.303818  Biso 1.000000     C
    C   1.0     0.253467     0.682720     0.376051  Biso 1.000000     C
    C   1.0     0.884436     0.297446     0.269076  Biso 1.000000     C
    C   1.0     0.942044     0.327916     0.194275  Biso 1.000000     C
    C   1.0     0.844703     0.186568     0.372684  Biso 1.000000     C
    C   1.0     0.803428     0.349751     0.307310  Biso 1.000000     C
    C   1.0     0.905587     0.214631     0.303915  Biso 1.000000     C
    C   1.0     0.746526     0.317199     0.376043  Biso 1.000000     C
    N   1.0     0.512591     0.906134     0.590425  Biso 1.000000     N
    N   1.0     0.452760     0.832042     0.588528  Biso 1.000000     N
    N   1.0     0.479703     0.781312     0.653157  Biso 1.000000     N
    N   1.0     0.579173     0.905404     0.656333  Biso 1.000000     N
    N   1.0     0.734120     0.736813     0.908225  Biso 1.000000     N
    N   1.0     0.487277     0.093871     0.590525  Biso 1.000000     N
    N   1.0     0.547229     0.167905     0.588647  Biso 1.000000     N
    N   1.0     0.520311     0.218607     0.653242  Biso 1.000000     N
    N   1.0     0.420626     0.094619     0.656400  Biso 1.000000     N
    N   1.0     0.265803     0.263152     0.908189  Biso 1.000000     N
    N   1.0     0.987273     0.406152     0.909479  Biso 1.000000     N
    N   1.0     0.047245     0.332104     0.911374  Biso 1.000000     N
    N   1.0     0.020339     0.281390     0.846794  Biso 1.000000     N
    N   1.0     0.920635     0.405408     0.843601  Biso 1.000000     N
    N   1.0     0.765780     0.236819     0.591879  Biso 1.000000     N
    N   1.0     0.012612     0.593865     0.909538  Biso 1.000000     N
    N   1.0     0.952703     0.667944     0.911427  Biso 1.000000     N
    N   1.0     0.979619     0.718691     0.846808  Biso 1.000000     N
    N   1.0     0.079212     0.594620     0.843636  Biso 1.000000     N
    N   1.0     0.234132     0.763298     0.591801  Biso 1.000000     N
    N   1.0     0.487410     0.093838     0.409563  Biso 1.000000     N
    N   1.0     0.547258     0.167920     0.411464  Biso 1.000000     N
    N   1.0     0.520308     0.218671     0.346850  Biso 1.000000     N
    N   1.0     0.420816     0.094590     0.343662  Biso 1.000000     N
    N   1.0     0.265822     0.263242     0.091818  Biso 1.000000     N
    N   1.0     0.512672     0.906115     0.409468  Biso 1.000000     N
    N   1.0     0.452669     0.832110     0.411349  Biso 1.000000     N
    N   1.0     0.479577     0.781376     0.346774  Biso 1.000000     N
    N   1.0     0.579339     0.905325     0.343604  Biso 1.000000     N
    N   1.0     0.734154     0.736743     0.091853  Biso 1.000000     N
    N   1.0     0.012726     0.593866     0.090513  Biso 1.000000     N
    N   1.0     0.952778     0.667928     0.088617  Biso 1.000000     N
    N   1.0     0.979676     0.718621     0.153214  Biso 1.000000     N
    N   1.0     0.079343     0.594584     0.156404  Biso 1.000000     N
    N   1.0     0.234158     0.763121     0.408166  Biso 1.000000     N
    N   1.0     0.987333     0.406134     0.090457  Biso 1.000000     N
    N   1.0     0.047192     0.332028     0.088567  Biso 1.000000     N
    N   1.0     0.020265     0.281307     0.153199  Biso 1.000000     N
    N   1.0     0.920746     0.405415     0.156368  Biso 1.000000     N
    N   1.0     0.765824     0.236789     0.408241  Biso 1.000000     N
   Cl   1.0     0.275534     0.965903     0.499882  Biso 1.000000    Cl
   Cl   1.0     0.724437     0.034106     0.500115  Biso 1.000000    Cl
   Cl   1.0     0.224376     0.465865    -0.000093  Biso 1.000000    Cl
   Cl   1.0     0.775610     0.534118     0.000080  Biso 1.000000    Cl
   Cu   1.0     0.332989     0.815053     0.499932  Biso 1.000000    Cu
   Cu   1.0     0.666964     0.184957     0.500085  Biso 1.000000    Cu
   Cu   1.0     0.166944     0.315030    -0.000038  Biso 1.000000    Cu
   Cu   1.0     0.833021     0.684961     0.000043  Biso 1.000000    Cu
   Cu   1.0     0.499990    -0.000018     0.500000  Biso 1.000000    Cu
   Cu   1.0    -0.000004     0.500003    -0.000004  Biso 1.000000    Cu
