#======================================================================

# CRYSTAL DATA

#----------------------------------------------------------------------

data_VESTA_phase_1


_pd_phase_name                         MOF
_cell_length_a                         15.44700
_cell_length_b                         15.52100
_cell_length_c                         17.69000
_cell_angle_alpha                      115.57900
_cell_angle_beta                       115.60900
_cell_angle_gamma                      90.04300
_symmetry_space_group_name_H-M         "P 1"
_symmetry_Int_Tables_number            1

loop_
_symmetry_equiv_pos_as_xyz
   "x, y, z"

loop_
   _atom_site_label
   _atom_site_occupancy
   _atom_site_fract_x
   _atom_site_fract_y
   _atom_site_fract_z
   _atom_site_adp_type
   _atom_site_B_iso_or_equiv
   _atom_site_type_symbol
    H   1.0     0.016512     0.879926     0.169908  Biso 1.000000     H
    H   1.0     0.073828     0.845304     0.305835  Biso 1.000000     H
    H   1.0     0.223151     0.034034     0.253474  Biso 1.000000     H
    H   1.0     0.315625     0.117877     0.431788  Biso 1.000000     H
    H   1.0     0.149287     0.286295     0.168099  Biso 1.000000     H
    H   1.0     0.226575     0.454164     0.304968  Biso 1.000000     H
    H   1.0     0.029906     0.218820     0.252895  Biso 1.000000     H
    H   1.0     0.116570     0.314046     0.431137  Biso 1.000000     H
    H   1.0     0.826908     0.100068     0.133882  Biso 1.000000     H
    H   1.0     0.748535     0.135109     0.236920  Biso 1.000000     H
    H   1.0     0.306527     0.032380     0.133916  Biso 1.000000     H
    H   1.0     0.487111     0.098402     0.236495  Biso 1.000000     H
    H   1.0     0.348820     0.622801     0.829570  Biso 1.000000     H
    H   1.0     0.270676     0.657617     0.694007  Biso 1.000000     H
    H   1.0     0.482299     0.210324     0.830540  Biso 1.000000     H
    H   1.0     0.425925     0.042343     0.694436  Biso 1.000000     H
    H   1.0     0.195848     0.403504     0.869176  Biso 1.000000     H
    H   1.0     0.015335     0.370154     0.766030  Biso 1.000000     H
    H   1.0     0.242725     0.400171     0.747579  Biso 1.000000     H
    H   1.0     0.147492     0.310724     0.569671  Biso 1.000000     H
    H   1.0     0.674399     0.467487     0.866998  Biso 1.000000     H
    H   1.0     0.754209     0.400417     0.765021  Biso 1.000000     H
    H   1.0     0.505092     0.347489     0.746620  Biso 1.000000     H
    H   1.0     0.422314     0.258586     0.568607  Biso 1.000000     H
    H   1.0     0.965904     0.173489     0.863589  Biso 1.000000     H
    H   1.0     0.900117     0.254775     0.763125  Biso 1.000000     H
    H   1.0     0.839312     0.002845     0.745015  Biso 1.000000     H
    H   1.0     0.748043     0.918921     0.566598  Biso 1.000000     H
    H   1.0     0.901162     0.693899     0.865622  Biso 1.000000     H
    H   1.0     0.867855     0.513927     0.764388  Biso 1.000000     H
    H   1.0     0.907925     0.745927     0.747630  Biso 1.000000     H
    H   1.0     0.820590     0.650721     0.569371  Biso 1.000000     H
    H   1.0     0.122881     0.850136     0.830474  Biso 1.000000     H
    H   1.0     0.156894     0.771928     0.694449  Biso 1.000000     H
    H   1.0     0.708887     0.983629     0.829954  Biso 1.000000     H
    H   1.0     0.540063     0.928363     0.694051  Biso 1.000000     H
    H   1.0     0.600921     0.328519     0.135287  Biso 1.000000     H
    H   1.0     0.635209     0.249515     0.237665  Biso 1.000000     H
    H   1.0     0.568614     0.507268     0.255187  Biso 1.000000     H
    H   1.0     0.655578     0.591868     0.433669  Biso 1.000000     H
    H   1.0     0.533192     0.804578     0.134094  Biso 1.000000     H
    H   1.0     0.600799     0.984355     0.236589  Biso 1.000000     H
    H   1.0     0.684279     0.744910     0.250843  Biso 1.000000     H
    H   1.0     0.776241     0.840235     0.429113  Biso 1.000000     H
    H   1.0     0.793022     0.648459     0.168367  Biso 1.000000     H
    H   1.0     0.961590     0.728307     0.304650  Biso 1.000000     H
    H   1.0     0.374646     0.517006     0.170700  Biso 1.000000     H
    H   1.0     0.339601     0.570356     0.306077  Biso 1.000000     H
    H   1.0     0.747015     0.943939     0.964299  Biso 1.000000     H
    H   1.0     0.581744     0.971597     0.940333  Biso 1.000000     H
    H   1.0     0.216548     0.020418     0.962659  Biso 1.000000     H
    H   1.0     0.358603     0.969381     0.939628  Biso 1.000000     H
    H   1.0     0.979665     0.252022     0.033599  Biso 1.000000     H
    H   1.0     0.032332     0.416425     0.058205  Biso 1.000000     H
    H   1.0     0.054814     0.782666     0.035251  Biso 1.000000     H
    H   1.0     0.026813     0.642865     0.060437  Biso 1.000000     H
    H   1.0     0.281852     0.555872     0.035140  Biso 1.000000     H
    H   1.0     0.141245     0.528600     0.060483  Biso 1.000000     H
    H   1.0     0.752950     0.479142     0.034740  Biso 1.000000     H
    H   1.0     0.918226     0.530971     0.058938  Biso 1.000000     H
    H   1.0     0.446603     0.249691     0.967895  Biso 1.000000     H
    H   1.0     0.474571     0.085006     0.942463  Biso 1.000000     H
    H   1.0     0.520641     0.717174     0.965374  Biso 1.000000     H
    H   1.0     0.467747     0.857352     0.940894  Biso 1.000000     H
    C   1.0     0.872059     0.785288     0.092709  Biso 1.000000     C
    C   1.0     0.967127     0.830141     0.169790  Biso 1.000000     C
    C   1.0     0.999053     0.810507     0.246493  Biso 1.000000     C
    C   1.0     0.202313     0.096123     0.296434  Biso 1.000000     C
    C   1.0     0.253747     0.144124     0.395594  Biso 1.000000     C
    C   1.0     0.218976     0.305579     0.092406  Biso 1.000000     C
    C   1.0     0.199321     0.336100     0.168871  Biso 1.000000     C
    C   1.0     0.243354     0.430958     0.246130  Biso 1.000000     C
    C   1.0     0.093962     0.199931     0.296106  Biso 1.000000     C
    C   1.0     0.142170     0.251541     0.395251  Biso 1.000000     C
    C   1.0     0.758514     0.194600     0.076578  Biso 1.000000     C
    C   1.0     0.778648     0.151034     0.134896  Biso 1.000000     C
    C   1.0     0.734507     0.171325     0.193271  Biso 1.000000     C
    C   1.0     0.317734     0.881271     0.076414  Biso 1.000000     C
    C   1.0     0.355639     0.982239     0.134741  Biso 1.000000     C
    C   1.0     0.457682     0.019223     0.192824  Biso 1.000000     C
    C   1.0     0.278991     0.714961     0.906241  Biso 1.000000     C
    C   1.0     0.298343     0.671350     0.829471  Biso 1.000000     C
    C   1.0     0.253854     0.691144     0.752904  Biso 1.000000     C
    C   1.0     0.628162     0.193447     0.906650  Biso 1.000000     C
    C   1.0     0.532647     0.161656     0.830085  Biso 1.000000     C
    C   1.0     0.501144     0.066633     0.753223  Biso 1.000000     C
    C   1.0     0.182729     0.307048     0.923892  Biso 1.000000     C
    C   1.0     0.145802     0.352012     0.866839  Biso 1.000000     C
    C   1.0     0.043989     0.332717     0.808567  Biso 1.000000     C
    C   1.0     0.279047     0.367324     0.704620  Biso 1.000000     C
    C   1.0     0.226960     0.318159     0.605504  Biso 1.000000     C
    C   1.0     0.742081     0.618109     0.923120  Biso 1.000000     C
    C   1.0     0.722669     0.517077     0.865575  Biso 1.000000     C
    C   1.0     0.767553     0.479660     0.807961  Biso 1.000000     C
    C   1.0     0.426048     0.337665     0.704069  Biso 1.000000     C
    C   1.0     0.378960     0.287452     0.604931  Biso 1.000000     C
    C   1.0     0.117591     0.242005     0.922503  Biso 1.000000     C
    C   1.0     0.016269     0.222570     0.863795  Biso 1.000000     C
    C   1.0     0.979621     0.268269     0.806996  Biso 1.000000     C
    C   1.0     0.833375     0.924996     0.702766  Biso 1.000000     C
    C   1.0     0.783286     0.877747     0.603587  Biso 1.000000     C
    C   1.0     0.806361     0.682370     0.922835  Biso 1.000000     C
    C   1.0     0.850408     0.644640     0.864864  Biso 1.000000     C
    C   1.0     0.831092     0.543115     0.807638  Biso 1.000000     C
    C   1.0     0.871054     0.780767     0.704239  Biso 1.000000     C
    C   1.0     0.821831     0.728448     0.605137  Biso 1.000000     C
    C   1.0     0.214665     0.779622     0.906498  Biso 1.000000     C
    C   1.0     0.171061     0.799340     0.829973  Biso 1.000000     C
    C   1.0     0.190488     0.754859     0.753155  Biso 1.000000     C
    C   1.0     0.692639     0.128946     0.906546  Biso 1.000000     C
    C   1.0     0.660275     0.034014     0.829751  Biso 1.000000     C
    C   1.0     0.564708     0.003114     0.753034  Biso 1.000000     C
    C   1.0     0.694267     0.259100     0.076775  Biso 1.000000     C
    C   1.0     0.651147     0.279546     0.135623  Biso 1.000000     C
    C   1.0     0.671198     0.235226     0.193650  Biso 1.000000     C
    C   1.0     0.616050     0.580829     0.297099  Biso 1.000000     C
    C   1.0     0.664985     0.628405     0.396288  Biso 1.000000     C
    C   1.0     0.381976     0.816758     0.076255  Biso 1.000000     C
    C   1.0     0.483458     0.854038     0.134761  Biso 1.000000     C
    C   1.0     0.521162     0.955473     0.192844  Biso 1.000000     C
    C   1.0     0.679743     0.714655     0.294680  Biso 1.000000     C
    C   1.0     0.730293     0.767059     0.393790  Biso 1.000000     C
    C   1.0     0.808043     0.720239     0.092724  Biso 1.000000     C
    C   1.0     0.841000     0.700210     0.169092  Biso 1.000000     C
    C   1.0     0.936413     0.745497     0.245978  Biso 1.000000     C
    C   1.0     0.283804     0.370943     0.093545  Biso 1.000000     C
    C   1.0     0.326601     0.465839     0.170531  Biso 1.000000     C
    C   1.0     0.306528     0.495669     0.246867  Biso 1.000000     C
    C   1.0     0.224065     0.223926     0.447522  Biso 1.000000     C
    C   1.0     0.276929     0.276783     0.553146  Biso 1.000000     C
    C   1.0     0.776576     0.777041     0.552495  Biso 1.000000     C
    C   1.0     0.723634     0.723892     0.446904  Biso 1.000000     C
    C   1.0     0.829092     0.790662    -0.001654  Biso 1.000000     C
    C   1.0     0.728678     0.816803     0.981506  Biso 1.000000     C
    C   1.0     0.890177     0.865242     0.994228  Biso 1.000000     C
    C   1.0     0.698445     0.894965     0.966136  Biso 1.000000     C
    C   1.0     0.604564     0.910006     0.951869  Biso 1.000000     C
    C   1.0     0.168871     0.207574    -0.002325  Biso 1.000000     C
    C   1.0     0.252890     0.165016     0.981324  Biso 1.000000     C
    C   1.0     0.103395     0.128705     0.992940  Biso 1.000000     C
    C   1.0     0.267478     0.071480     0.965352  Biso 1.000000     C
    C   1.0     0.347565     0.042560     0.951681  Biso 1.000000     C
    C   1.0     0.791780     0.171444     0.000000  Biso 1.000000     C
    C   1.0     0.835311     0.271171     0.017222  Biso 1.000000     C
    C   1.0     0.870112     0.110204     0.004392  Biso 1.000000     C
    C   1.0     0.929087     0.300738     0.032279  Biso 1.000000     C
    C   1.0     0.959031     0.394207     0.046919  Biso 1.000000     C
    C   1.0     0.208981     0.829705     0.000000  Biso 1.000000     C
    C   1.0     0.182148     0.746596     0.017595  Biso 1.000000     C
    C   1.0     0.134588     0.894877     0.004810  Biso 1.000000     C
    C   1.0     0.103788     0.732366     0.033474  Biso 1.000000     C
    C   1.0     0.088557     0.653541     0.048476  Biso 1.000000     C
    C   1.0     0.329418     0.708707     0.000000  Biso 1.000000     C
    C   1.0     0.246001     0.682600     0.017416  Biso 1.000000     C
    C   1.0     0.393869     0.633512     0.002956  Biso 1.000000     C
    C   1.0     0.231439     0.604746     0.033372  Biso 1.000000     C
    C   1.0     0.152226     0.589960     0.048482  Biso 1.000000     C
    C   1.0     0.671032     0.292101     0.000000  Biso 1.000000     C
    C   1.0     0.771394     0.335102     0.017370  Biso 1.000000     C
    C   1.0     0.609457     0.370143     0.003538  Biso 1.000000     C
    C   1.0     0.801590     0.428508     0.032892  Biso 1.000000     C
    C   1.0     0.895498     0.457924     0.047294  Biso 1.000000     C
    C   1.0     0.291025     0.329600     0.000257  Biso 1.000000     C
    C   1.0     0.317625     0.229631     0.982778  Biso 1.000000     C
    C   1.0     0.366500     0.391653     0.997934  Biso 1.000000     C
    C   1.0     0.396882     0.200495     0.968354  Biso 1.000000     C
    C   1.0     0.412090     0.106895     0.953213  Biso 1.000000     C
    C   1.0     0.708727     0.670016    -0.000985  Biso 1.000000     C
    C   1.0     0.664975     0.752969     0.981900  Biso 1.000000     C
    C   1.0     0.630616     0.605324     0.995966  Biso 1.000000     C
    C   1.0     0.571144     0.767419     0.966778  Biso 1.000000     C
    C   1.0     0.541108     0.846433     0.952205  Biso 1.000000     C
    N   1.0     0.123427     0.123319     0.247228  Biso 1.000000     N
    N   1.0     0.377079     0.377144     0.753352  Biso 1.000000     N
    N   1.0     0.876735     0.877448     0.752430  Biso 1.000000     N
    N   1.0     0.623325     0.623091     0.246963  Biso 1.000000     N
    O   1.0     0.950059     0.939164     0.073110  Biso 1.000000     O
    O   1.0     0.121940     0.131988     0.071678  Biso 1.000000     O
    O   1.0     0.939269     0.129991     0.086231  Biso 1.000000     O
    O   1.0     0.146788     0.955650     0.086761  Biso 1.000000     O
    O   1.0     0.375001     0.559916     0.923582  Biso 1.000000     O
    O   1.0     0.549951     0.365714     0.924196  Biso 1.000000     O
    O   1.0     0.354702     0.373302     0.916543  Biso 1.000000     O
    O   1.0     0.562018     0.543456     0.914467  Biso 1.000000     O
    O   1.0     0.039882     0.062097     0.910995  Biso 1.000000     O
    O   1.0     0.872305     0.851523     0.912347  Biso 1.000000     O
    O   1.0     0.062159     0.879422     0.925930  Biso 1.000000     O
    O   1.0     0.864051     0.047901     0.925386  Biso 1.000000     O
    O   1.0     0.626484     0.437248     0.084972  Biso 1.000000     O
    O   1.0     0.457236     0.646445     0.084413  Biso 1.000000     O
    O   1.0     0.636371     0.622551     0.075405  Biso 1.000000     O
    O   1.0     0.439076     0.452964     0.077518  Biso 1.000000     O
   Zn   1.0     0.049402     0.049196     0.099534  Biso 1.000000    Zn
   Zn   1.0     0.450798     0.451158     0.900747  Biso 1.000000    Zn
   Zn   1.0     0.950259     0.950854     0.899819  Biso 1.000000    Zn
   Zn   1.0     0.549311     0.549239     0.099576  Biso 1.000000    Zn
