#======================================================================

# CRYSTAL DATA

#----------------------------------------------------------------------

data_VESTA_phase_1


_pd_phase_name                         MOF
_cell_length_a                         20.63600
_cell_length_b                         15.49900
_cell_length_c                         23.72200
_cell_angle_alpha                      89.79800
_cell_angle_beta                       89.98400
_cell_angle_gamma                      90.01500
_symmetry_space_group_name_H-M         "P 1"
_symmetry_Int_Tables_number            1

loop_
_symmetry_equiv_pos_as_xyz
   "x, y, z"

loop_
   _atom_site_label
   _atom_site_occupancy
   _atom_site_fract_x
   _atom_site_fract_y
   _atom_site_fract_z
   _atom_site_adp_type
   _atom_site_B_iso_or_equiv
   _atom_site_type_symbol
    H   1.0     0.014404     0.108922     0.822200  Biso 1.000000     H
    H   1.0     0.514416     0.108925     0.822200  Biso 1.000000     H
    H   1.0    -0.001368     0.056467     0.724125  Biso 1.000000     H
    H   1.0     0.498645     0.056471     0.724124  Biso 1.000000     H
    H   1.0     0.215746     0.037805     0.816302  Biso 1.000000     H
    H   1.0     0.715758     0.037803     0.816303  Biso 1.000000     H
    H   1.0     0.044087     0.989034     0.637366  Biso 1.000000     H
    H   1.0     0.544100     0.989036     0.637366  Biso 1.000000     H
    H   1.0     0.245734     0.921472     0.630219  Biso 1.000000     H
    H   1.0     0.745746     0.921470     0.630220  Biso 1.000000     H
    H   1.0     0.261548     0.973530     0.728672  Biso 1.000000     H
    H   1.0     0.761559     0.973526     0.728673  Biso 1.000000     H
    H   1.0     0.350461     0.073554     0.981206  Biso 1.000000     H
    H   1.0     0.850472     0.073554     0.981205  Biso 1.000000     H
    H   1.0     0.293541     0.259107     0.892493  Biso 1.000000     H
    H   1.0     0.793553     0.259110     0.892494  Biso 1.000000     H
    H   1.0     0.291398     0.255588     0.788078  Biso 1.000000     H
    H   1.0     0.791410     0.255591     0.788079  Biso 1.000000     H
    H   1.0     0.338402     0.130404     0.736667  Biso 1.000000     H
    H   1.0     0.838413     0.130407     0.736667  Biso 1.000000     H
    H   1.0     0.388445     0.009138     0.790966  Biso 1.000000     H
    H   1.0     0.888455     0.009141     0.790966  Biso 1.000000     H
    H   1.0     0.391366     0.013893     0.895413  Biso 1.000000     H
    H   1.0     0.891377     0.013894     0.895413  Biso 1.000000     H
    H   1.0     0.236925     0.893791     0.323655  Biso 1.000000     H
    H   1.0     0.736940     0.893788     0.323654  Biso 1.000000     H
    H   1.0     0.253136     0.945277     0.225174  Biso 1.000000     H
    H   1.0     0.753150     0.945275     0.225173  Biso 1.000000     H
    H   1.0     0.035557     0.964556     0.316521  Biso 1.000000     H
    H   1.0     0.535572     0.964555     0.316523  Biso 1.000000     H
    H   1.0     0.208128     0.011863     0.137722  Biso 1.000000     H
    H   1.0     0.708140     0.011862     0.137722  Biso 1.000000     H
    H   1.0     0.006400     0.078696     0.129210  Biso 1.000000     H
    H   1.0     0.506413     0.078697     0.129213  Biso 1.000000     H
    H   1.0     0.490118     0.027671     0.228048  Biso 1.000000     H
    H   1.0     0.990128     0.027672     0.228046  Biso 1.000000     H
    H   1.0     0.401948     0.926491     0.480543  Biso 1.000000     H
    H   1.0     0.901960     0.926491     0.480544  Biso 1.000000     H
    H   1.0     0.459161     0.741969     0.392051  Biso 1.000000     H
    H   1.0     0.959172     0.741965     0.392055  Biso 1.000000     H
    H   1.0     0.460985     0.746035     0.287607  Biso 1.000000     H
    H   1.0     0.960997     0.746030     0.287611  Biso 1.000000     H
    H   1.0     0.413370     0.871181     0.236036  Biso 1.000000     H
    H   1.0     0.913383     0.871176     0.236038  Biso 1.000000     H
    H   1.0     0.363040     0.991851     0.290188  Biso 1.000000     H
    H   1.0     0.863055     0.991848     0.290189  Biso 1.000000     H
    H   1.0     0.360473     0.986526     0.394665  Biso 1.000000     H
    H   1.0     0.860487     0.986525     0.394666  Biso 1.000000     H
    H   1.0     0.486925     0.606203     0.676303  Biso 1.000000     H
    H   1.0     0.986939     0.606191     0.676303  Biso 1.000000     H
    H   1.0     0.503138     0.554742     0.774776  Biso 1.000000     H
    H   1.0     0.000000     0.554726     0.774774  Biso 1.000000     H
    H   1.0     0.285542     0.535374     0.683562  Biso 1.000000     H
    H   1.0     0.785553     0.535378     0.683565  Biso 1.000000     H
    H   1.0     0.458130     0.488184     0.862265  Biso 1.000000     H
    H   1.0     0.958144     0.488175     0.862265  Biso 1.000000     H
    H   1.0     0.256391     0.421278     0.870907  Biso 1.000000     H
    H   1.0     0.756402     0.421285     0.870911  Biso 1.000000     H
    H   1.0     0.240090     0.472257     0.772075  Biso 1.000000     H
    H   1.0     0.740101     0.472264     0.772079  Biso 1.000000     H
    H   1.0     0.151881     0.573520     0.519511  Biso 1.000000     H
    H   1.0     0.651892     0.573520     0.519513  Biso 1.000000     H
    H   1.0     0.209112     0.758085     0.607971  Biso 1.000000     H
    H   1.0     0.709122     0.758085     0.607973  Biso 1.000000     H
    H   1.0     0.210963     0.754005     0.712412  Biso 1.000000     H
    H   1.0     0.710973     0.754005     0.712415  Biso 1.000000     H
    H   1.0     0.163367     0.628813     0.764005  Biso 1.000000     H
    H   1.0     0.663376     0.628812     0.764008  Biso 1.000000     H
    H   1.0     0.113032     0.508109     0.709880  Biso 1.000000     H
    H   1.0     0.613041     0.508109     0.709882  Biso 1.000000     H
    H   1.0     0.110436     0.513453     0.605406  Biso 1.000000     H
    H   1.0     0.610445     0.513454     0.605408  Biso 1.000000     H
    H   1.0     0.264394     0.391064     0.177874  Biso 1.000000     H
    H   1.0     0.764406     0.391064     0.177876  Biso 1.000000     H
    H   1.0     0.248620     0.443503     0.275956  Biso 1.000000     H
    H   1.0     0.748630     0.443506     0.275956  Biso 1.000000     H
    H   1.0     0.465762     0.462199     0.183713  Biso 1.000000     H
    H   1.0     0.965775     0.462189     0.183718  Biso 1.000000     H
    H   1.0     0.294084     0.510921     0.362711  Biso 1.000000     H
    H   1.0     0.794093     0.510923     0.362713  Biso 1.000000     H
    H   1.0     0.495748     0.578520     0.369787  Biso 1.000000     H
    H   1.0     0.995759     0.578513     0.369792  Biso 1.000000     H
    H   1.0     0.011553     0.526457     0.271335  Biso 1.000000     H
    H   1.0     0.511564     0.526469     0.271329  Biso 1.000000     H
    H   1.0     0.100513     0.426453     0.018812  Biso 1.000000     H
    H   1.0     0.600526     0.426453     0.018811  Biso 1.000000     H
    H   1.0     0.043515     0.240869     0.107536  Biso 1.000000     H
    H   1.0     0.543524     0.240871     0.107536  Biso 1.000000     H
    H   1.0     0.041380     0.244355     0.211953  Biso 1.000000     H
    H   1.0     0.541388     0.244358     0.211953  Biso 1.000000     H
    H   1.0     0.088402     0.369548     0.263354  Biso 1.000000     H
    H   1.0     0.588409     0.369551     0.263354  Biso 1.000000     H
    H   1.0     0.138442     0.490864     0.209043  Biso 1.000000     H
    H   1.0     0.638452     0.490866     0.209043  Biso 1.000000     H
    H   1.0     0.141355     0.486140     0.104593  Biso 1.000000     H
    H   1.0     0.641366     0.486141     0.104594  Biso 1.000000     H
    C   1.0     0.124393     0.107799     0.883483  Biso 1.000000     C
    C   1.0     0.624404     0.107798     0.883484  Biso 1.000000     C
    C   1.0     0.116311     0.075550     0.824674  Biso 1.000000     C
    C   1.0     0.616323     0.075549     0.824675  Biso 1.000000     C
    C   1.0     0.054520     0.081469     0.798448  Biso 1.000000     C
    C   1.0     0.554532     0.081472     0.798447  Biso 1.000000     C
    C   1.0     0.046084     0.052397     0.744260  Biso 1.000000     C
    C   1.0     0.546096     0.052399     0.744260  Biso 1.000000     C
    C   1.0     0.098754     0.016975     0.713402  Biso 1.000000     C
    C   1.0     0.598766     0.016976     0.713402  Biso 1.000000     C
    C   1.0     0.161380     0.011721     0.739734  Biso 1.000000     C
    C   1.0     0.661392     0.011720     0.739735  Biso 1.000000     C
    C   1.0     0.168581     0.041208     0.795765  Biso 1.000000     C
    C   1.0     0.668594     0.041209     0.795766  Biso 1.000000     C
    C   1.0     0.091408     0.986420     0.657688  Biso 1.000000     C
    C   1.0     0.591420     0.986420     0.657688  Biso 1.000000     C
    C   1.0     0.143481     0.952336     0.628396  Biso 1.000000     C
    C   1.0     0.643493     0.952337     0.628396  Biso 1.000000     C
    C   1.0     0.205542     0.948124     0.654268  Biso 1.000000     C
    C   1.0     0.705553     0.948122     0.654269  Biso 1.000000     C
    C   1.0     0.214076     0.976924     0.708556  Biso 1.000000     C
    C   1.0     0.714088     0.976922     0.708557  Biso 1.000000     C
    C   1.0     0.133947     0.917348     0.570406  Biso 1.000000     C
    C   1.0     0.633958     0.917349     0.570406  Biso 1.000000     C
    C   1.0     0.409306     0.185542     0.982636  Biso 1.000000     C
    C   1.0     0.909318     0.185542     0.982636  Biso 1.000000     C
    C   1.0     0.346042     0.140304     0.964976  Biso 1.000000     C
    C   1.0     0.846054     0.140305     0.964976  Biso 1.000000     C
    C   1.0     0.342564     0.136784     0.900805  Biso 1.000000     C
    C   1.0     0.842574     0.136785     0.900805  Biso 1.000000     C
    C   1.0     0.314433     0.204460     0.870205  Biso 1.000000     C
    C   1.0     0.814446     0.204463     0.870206  Biso 1.000000     C
    C   1.0     0.313077     0.202169     0.811398  Biso 1.000000     C
    C   1.0     0.813089     0.202172     0.811398  Biso 1.000000     C
    C   1.0     0.339742     0.132159     0.782611  Biso 1.000000     C
    C   1.0     0.839753     0.132162     0.782610  Biso 1.000000     C
    C   1.0     0.367617     0.064245     0.812995  Biso 1.000000     C
    C   1.0     0.867628     0.064248     0.812994  Biso 1.000000     C
    C   1.0     0.369074     0.066631     0.871823  Biso 1.000000     C
    C   1.0     0.869086     0.066632     0.871822  Biso 1.000000     C
    C   1.0     0.126859     0.895257     0.384601  Biso 1.000000     C
    C   1.0     0.626875     0.895256     0.384601  Biso 1.000000     C
    C   1.0     0.135033     0.927185     0.325569  Biso 1.000000     C
    C   1.0     0.635048     0.927184     0.325570  Biso 1.000000     C
    C   1.0     0.196928     0.921041     0.299550  Biso 1.000000     C
    C   1.0     0.696943     0.921038     0.299550  Biso 1.000000     C
    C   1.0     0.205596     0.949546     0.245132  Biso 1.000000     C
    C   1.0     0.705610     0.949544     0.245132  Biso 1.000000     C
    C   1.0     0.153049     0.984563     0.213795  Biso 1.000000     C
    C   1.0     0.653062     0.984561     0.213795  Biso 1.000000     C
    C   1.0     0.090283     0.989943     0.239883  Biso 1.000000     C
    C   1.0     0.590297     0.989942     0.239885  Biso 1.000000     C
    C   1.0     0.082845     0.961077     0.296185  Biso 1.000000     C
    C   1.0     0.582859     0.961074     0.296186  Biso 1.000000     C
    C   1.0     0.160677     0.014539     0.157822  Biso 1.000000     C
    C   1.0     0.660690     0.014539     0.157823  Biso 1.000000     C
    C   1.0     0.108723     0.048137     0.128015  Biso 1.000000     C
    C   1.0     0.608735     0.048136     0.128016  Biso 1.000000     C
    C   1.0     0.046512     0.052429     0.153641  Biso 1.000000     C
    C   1.0     0.546525     0.052430     0.153644  Biso 1.000000     C
    C   1.0     0.037710     0.024216     0.208166  Biso 1.000000     C
    C   1.0     0.537723     0.024215     0.208168  Biso 1.000000     C
    C   1.0     0.118419     0.082629     0.069735  Biso 1.000000     C
    C   1.0     0.618430     0.082630     0.069736  Biso 1.000000     C
    C   1.0     0.343010     0.814473     0.481876  Biso 1.000000     C
    C   1.0     0.843023     0.814473     0.481878  Biso 1.000000     C
    C   1.0     0.406315     0.859921     0.464300  Biso 1.000000     C
    C   1.0     0.906327     0.859921     0.464302  Biso 1.000000     C
    C   1.0     0.409755     0.863953     0.400153  Biso 1.000000     C
    C   1.0     0.909769     0.863952     0.400155  Biso 1.000000     C
    C   1.0     0.438034     0.796597     0.369671  Biso 1.000000     C
    C   1.0     0.938046     0.796593     0.369674  Biso 1.000000     C
    C   1.0     0.439185     0.799195     0.310859  Biso 1.000000     C
    C   1.0     0.939198     0.799191     0.310862  Biso 1.000000     C
    C   1.0     0.412182     0.869189     0.281984  Biso 1.000000     C
    C   1.0     0.912196     0.869184     0.281986  Biso 1.000000     C
    C   1.0     0.384140     0.936765     0.312278  Biso 1.000000     C
    C   1.0     0.884155     0.936761     0.312280  Biso 1.000000     C
    C   1.0     0.382893     0.934086     0.371111  Biso 1.000000     C
    C   1.0     0.882907     0.934084     0.371113  Biso 1.000000     C
    C   1.0     0.376831     0.604735     0.615428  Biso 1.000000     C
    C   1.0     0.876841     0.604737     0.615431  Biso 1.000000     C
    C   1.0     0.385018     0.572781     0.674449  Biso 1.000000     C
    C   1.0     0.885030     0.572779     0.674451  Biso 1.000000     C
    C   1.0     0.446922     0.578947     0.700430  Biso 1.000000     C
    C   1.0     0.946935     0.578936     0.700429  Biso 1.000000     C
    C   1.0     0.455595     0.550454     0.754845  Biso 1.000000     C
    C   1.0     0.955609     0.550444     0.754844  Biso 1.000000     C
    C   1.0     0.403046     0.515430     0.786219  Biso 1.000000     C
    C   1.0     0.903059     0.515423     0.786219  Biso 1.000000     C
    C   1.0     0.340275     0.510015     0.760170  Biso 1.000000     C
    C   1.0     0.840287     0.510014     0.760173  Biso 1.000000     C
    C   1.0     0.332832     0.538870     0.703870  Biso 1.000000     C
    C   1.0     0.832844     0.538868     0.703872  Biso 1.000000     C
    C   1.0     0.410677     0.485481     0.842191  Biso 1.000000     C
    C   1.0     0.910690     0.485477     0.842192  Biso 1.000000     C
    C   1.0     0.358725     0.451874     0.872038  Biso 1.000000     C
    C   1.0     0.858738     0.451871     0.872040  Biso 1.000000     C
    C   1.0     0.296508     0.447549     0.846450  Biso 1.000000     C
    C   1.0     0.796520     0.447554     0.846454  Biso 1.000000     C
    C   1.0     0.287700     0.475738     0.791926  Biso 1.000000     C
    C   1.0     0.787711     0.475741     0.791929  Biso 1.000000     C
    C   1.0     0.368432     0.417398     0.930315  Biso 1.000000     C
    C   1.0     0.868446     0.417394     0.930316  Biso 1.000000     C
    C   1.0     0.092987     0.685531     0.518162  Biso 1.000000     C
    C   1.0     0.592999     0.685531     0.518163  Biso 1.000000     C
    C   1.0     0.156271     0.640097     0.535741  Biso 1.000000     C
    C   1.0     0.656282     0.640097     0.535743  Biso 1.000000     C
    C   1.0     0.159697     0.636071     0.599888  Biso 1.000000     C
    C   1.0     0.659707     0.636072     0.599890  Biso 1.000000     C
    C   1.0     0.187986     0.703440     0.630359  Biso 1.000000     C
    C   1.0     0.687996     0.703440     0.630361  Biso 1.000000     C
    C   1.0     0.189156     0.700835     0.689169  Biso 1.000000     C
    C   1.0     0.689166     0.700835     0.689172  Biso 1.000000     C
    C   1.0     0.162166     0.630814     0.718058  Biso 1.000000     C
    C   1.0     0.662176     0.630814     0.718061  Biso 1.000000     C
    C   1.0     0.134118     0.563221     0.687780  Biso 1.000000     C
    C   1.0     0.634127     0.563221     0.687782  Biso 1.000000     C
    C   1.0     0.132852     0.565912     0.628948  Biso 1.000000     C
    C   1.0     0.632862     0.565913     0.628950  Biso 1.000000     C
    C   1.0     0.374400     0.392207     0.116546  Biso 1.000000     C
    C   1.0     0.874414     0.392201     0.116550  Biso 1.000000     C
    C   1.0     0.366315     0.424445     0.175364  Biso 1.000000     C
    C   1.0     0.866329     0.424437     0.175368  Biso 1.000000     C
    C   1.0     0.304517     0.418517     0.201613  Biso 1.000000     C
    C   1.0     0.804528     0.418519     0.201614  Biso 1.000000     C
    C   1.0     0.296079     0.447579     0.255806  Biso 1.000000     C
    C   1.0     0.796090     0.447575     0.255809  Biso 1.000000     C
    C   1.0     0.348752     0.483003     0.286651  Biso 1.000000     C
    C   1.0     0.848763     0.483001     0.286654  Biso 1.000000     C
    C   1.0     0.411386     0.488268     0.260298  Biso 1.000000     C
    C   1.0     0.911398     0.488260     0.260302  Biso 1.000000     C
    C   1.0     0.418589     0.458788     0.204262  Biso 1.000000     C
    C   1.0     0.918601     0.458785     0.204265  Biso 1.000000     C
    C   1.0     0.341408     0.513542     0.342372  Biso 1.000000     C
    C   1.0     0.841419     0.513537     0.342375  Biso 1.000000     C
    C   1.0     0.393486     0.547634     0.371647  Biso 1.000000     C
    C   1.0     0.893496     0.547634     0.371649  Biso 1.000000     C
    C   1.0     0.455552     0.551859     0.345752  Biso 1.000000     C
    C   1.0     0.955564     0.551851     0.345757  Biso 1.000000     C
    C   1.0     0.464088     0.523067     0.291460  Biso 1.000000     C
    C   1.0     0.964100     0.523060     0.291464  Biso 1.000000     C
    C   1.0     0.383955     0.582625     0.429640  Biso 1.000000     C
    C   1.0     0.883965     0.582628     0.429642  Biso 1.000000     C
    C   1.0     0.159313     0.314462     0.017384  Biso 1.000000     C
    C   1.0     0.659325     0.314463     0.017384  Biso 1.000000     C
    C   1.0     0.096054     0.359703     0.035041  Biso 1.000000     C
    C   1.0     0.596065     0.359703     0.035040  Biso 1.000000     C
    C   1.0     0.092547     0.363221     0.099212  Biso 1.000000     C
    C   1.0     0.592559     0.363222     0.099212  Biso 1.000000     C
    C   1.0     0.064409     0.295525     0.129819  Biso 1.000000     C
    C   1.0     0.564419     0.295527     0.129819  Biso 1.000000     C
    C   1.0     0.063058     0.297796     0.188628  Biso 1.000000     C
    C   1.0     0.563067     0.297798     0.188628  Biso 1.000000     C
    C   1.0     0.089732     0.367811     0.217409  Biso 1.000000     C
    C   1.0     0.589740     0.367814     0.217409  Biso 1.000000     C
    C   1.0     0.117608     0.435752     0.187019  Biso 1.000000     C
    C   1.0     0.617618     0.435754     0.187019  Biso 1.000000     C
    C   1.0     0.119059     0.433384     0.128190  Biso 1.000000     C
    C   1.0     0.619070     0.433385     0.128190  Biso 1.000000     C
    O   1.0     0.177630     0.088636     0.908666  Biso 1.000000     O
    O   1.0     0.677643     0.088637     0.908666  Biso 1.000000     O
    O   1.0     0.077946     0.151628     0.903696  Biso 1.000000     O
    O   1.0     0.577958     0.151629     0.903697  Biso 1.000000     O
    O   1.0     0.076512     0.921663     0.549942  Biso 1.000000     O
    O   1.0     0.576523     0.921661     0.549944  Biso 1.000000     O
    O   1.0     0.183304     0.885099     0.546069  Biso 1.000000     O
    O   1.0     0.683315     0.885098     0.546070  Biso 1.000000     O
    O   1.0     0.292088     0.181781     0.990183  Biso 1.000000     O
    O   1.0     0.792100     0.181781     0.990184  Biso 1.000000     O
    O   1.0     0.402751     0.251705     0.014596  Biso 1.000000     O
    O   1.0     0.902763     0.251705     0.014596  Biso 1.000000     O
    O   1.0     0.462012     0.155521     0.965340  Biso 1.000000     O
    O   1.0     0.962024     0.155521     0.965340  Biso 1.000000     O
    O   1.0     0.073692     0.914618     0.409785  Biso 1.000000     O
    O   1.0     0.573709     0.914617     0.409786  Biso 1.000000     O
    O   1.0     0.173139     0.851238     0.405047  Biso 1.000000     O
    O   1.0     0.673155     0.851234     0.405046  Biso 1.000000     O
    O   1.0     0.175768     0.077948     0.049145  Biso 1.000000     O
    O   1.0     0.675779     0.077949     0.049146  Biso 1.000000     O
    O   1.0     0.069140     0.115041     0.045274  Biso 1.000000     O
    O   1.0     0.569151     0.115045     0.045277  Biso 1.000000     O
    O   1.0     0.460212     0.818033     0.489467  Biso 1.000000     O
    O   1.0     0.960224     0.818034     0.489470  Biso 1.000000     O
    O   1.0     0.349723     0.747826     0.513668  Biso 1.000000     O
    O   1.0     0.849735     0.747824     0.513668  Biso 1.000000     O
    O   1.0     0.290214     0.844533     0.464620  Biso 1.000000     O
    O   1.0     0.790227     0.844533     0.464621  Biso 1.000000     O
    O   1.0     0.323658     0.585380     0.590265  Biso 1.000000     O
    O   1.0     0.823669     0.585378     0.590267  Biso 1.000000     O
    O   1.0     0.423116     0.648790     0.594970  Biso 1.000000     O
    O   1.0     0.923129     0.648784     0.594970  Biso 1.000000     O
    O   1.0     0.425791     0.422056     0.950862  Biso 1.000000     O
    O   1.0     0.925804     0.422058     0.950864  Biso 1.000000     O
    O   1.0     0.319144     0.385008     0.954818  Biso 1.000000     O
    O   1.0     0.819157     0.385015     0.954824  Biso 1.000000     O
    O   1.0     0.210199     0.681972     0.510561  Biso 1.000000     O
    O   1.0     0.710211     0.681973     0.510564  Biso 1.000000     O
    O   1.0     0.099729     0.752171     0.486359  Biso 1.000000     O
    O   1.0     0.599741     0.752170     0.486359  Biso 1.000000     O
    O   1.0     0.040170     0.655462     0.535415  Biso 1.000000     O
    O   1.0     0.540181     0.655462     0.535415  Biso 1.000000     O
    O   1.0     0.427653     0.411378     0.091351  Biso 1.000000     O
    O   1.0     0.927664     0.411381     0.091352  Biso 1.000000     O
    O   1.0     0.327948     0.348376     0.096337  Biso 1.000000     O
    O   1.0     0.827959     0.348379     0.096337  Biso 1.000000     O
    O   1.0     0.326520     0.578290     0.450132  Biso 1.000000     O
    O   1.0     0.826534     0.578281     0.450138  Biso 1.000000     O
    O   1.0     0.433315     0.614910     0.453947  Biso 1.000000     O
    O   1.0     0.933328     0.614905     0.453950  Biso 1.000000     O
    O   1.0     0.042097     0.318230     0.009833  Biso 1.000000     O
    O   1.0     0.542109     0.318230     0.009833  Biso 1.000000     O
    O   1.0     0.152738     0.248303     0.985419  Biso 1.000000     O
    O   1.0     0.652750     0.248303     0.985419  Biso 1.000000     O
    O   1.0     0.212018     0.344474     0.034690  Biso 1.000000     O
    O   1.0     0.712029     0.344474     0.034690  Biso 1.000000     O
   Zn   1.0     0.305180     0.303546     0.019895  Biso 1.000000    Zn
   Zn   1.0     0.805192     0.303546     0.019896  Biso 1.000000    Zn
   Zn   1.0     0.205337     0.137187     0.980168  Biso 1.000000    Zn
   Zn   1.0     0.705349     0.137187     0.980168  Biso 1.000000    Zn
   Zn   1.0     0.447329     0.696001     0.518982  Biso 1.000000    Zn
   Zn   1.0     0.947341     0.696000     0.518983  Biso 1.000000    Zn
   Zn   1.0     0.047146     0.863171     0.481075  Biso 1.000000    Zn
   Zn   1.0     0.547158     0.863171     0.481075  Biso 1.000000    Zn
   Zn   1.0     0.197331     0.804003     0.481030  Biso 1.000000    Zn
   Zn   1.0     0.697343     0.804002     0.481031  Biso 1.000000    Zn
   Zn   1.0     0.297129     0.636830     0.518978  Biso 1.000000    Zn
   Zn   1.0     0.797141     0.636829     0.518980  Biso 1.000000    Zn
   Zn   1.0     0.055165     0.196449     0.980142  Biso 1.000000    Zn
   Zn   1.0     0.555177     0.196449     0.980143  Biso 1.000000    Zn
   Zn   1.0     0.455363     0.362831     0.019839  Biso 1.000000    Zn
   Zn   1.0     0.955376     0.362831     0.019840  Biso 1.000000    Zn
