#======================================================================

# CRYSTAL DATA

#----------------------------------------------------------------------

data_VESTA_phase_1


_pd_phase_name                         MOF
_cell_length_a                         9.81200
_cell_length_b                         17.72200
_cell_length_c                         18.04900
_cell_angle_alpha                      90.03900
_cell_angle_beta                       93.46300
_cell_angle_gamma                      89.95100
_symmetry_space_group_name_H-M         "P 1"
_symmetry_Int_Tables_number            1

loop_
_symmetry_equiv_pos_as_xyz
   "x, y, z"

loop_
   _atom_site_label
   _atom_site_occupancy
   _atom_site_fract_x
   _atom_site_fract_y
   _atom_site_fract_z
   _atom_site_adp_type
   _atom_site_B_iso_or_equiv
   _atom_site_type_symbol
    H   1.0     0.379032     0.000000     0.217436  Biso 1.000000     H
    H   1.0     0.906990     0.000000     0.202538  Biso 1.000000     H
    H   1.0     0.280169     0.135822     0.180468  Biso 1.000000     H
    H   1.0     0.828151     0.089846     0.150366  Biso 1.000000     H
    H   1.0     0.360036     0.190547     0.314612  Biso 1.000000     H
    H   1.0     0.839225     0.134655     0.281490  Biso 1.000000     H
    H   1.0     0.461252     0.000000     0.326097  Biso 1.000000     H
    H   1.0     0.959442     0.000000     0.312174  Biso 1.000000     H
    H   1.0    -0.029794     0.177846     0.393809  Biso 1.000000     H
    H   1.0     0.548224     0.215032     0.406666  Biso 1.000000     H
    H   1.0     0.127958     0.162079     0.352694  Biso 1.000000     H
    H   1.0     0.670649     0.182811     0.345751  Biso 1.000000     H
    H   1.0     0.484831     0.321145     0.323523  Biso 1.000000     H
    H   1.0     0.909256     0.277868     0.301138  Biso 1.000000     H
    H   1.0     0.063737     0.310308     0.202513  Biso 1.000000     H
    H   1.0     0.597641     0.343466     0.207355  Biso 1.000000     H
    H   1.0     0.184163     0.242310     0.237132  Biso 1.000000     H
    H   1.0     0.698985     0.261376     0.221518  Biso 1.000000     H
    H   1.0     0.050261     0.192307     0.127334  Biso 1.000000     H
    H   1.0     0.504218     0.233326     0.133488  Biso 1.000000     H
    H   1.0     0.386929     0.267130     0.196890  Biso 1.000000     H
    H   1.0     0.894321     0.212066     0.168516  Biso 1.000000     H
    H   1.0     0.123016     0.559566     0.281779  Biso 1.000000     H
    H   1.0     0.595549     0.516037     0.297084  Biso 1.000000     H
    H   1.0     0.222234     0.635272     0.318973  Biso 1.000000     H
    H   1.0     0.674201     0.589620     0.349508  Biso 1.000000     H
    H   1.0     0.142533     0.690134     0.184945  Biso 1.000000     H
    H   1.0     0.664023     0.634633     0.218678  Biso 1.000000     H
    H   1.0     0.040769     0.607376     0.173352  Biso 1.000000     H
    H   1.0     0.543948     0.564828     0.187491  Biso 1.000000     H
    H   1.0     0.533967     0.678125     0.106187  Biso 1.000000     H
    H   1.0     0.954305     0.715139     0.092997  Biso 1.000000     H
    H   1.0     0.375816     0.662461     0.146857  Biso 1.000000     H
    H   1.0     0.831829     0.683235     0.153926  Biso 1.000000     H
    H   1.0     0.018421     0.821100     0.176297  Biso 1.000000     H
    H   1.0     0.594049     0.778095     0.199126  Biso 1.000000     H
    H   1.0     0.438750     0.810391     0.297558  Biso 1.000000     H
    H   1.0     0.905964     0.843705     0.292540  Biso 1.000000     H
    H   1.0     0.318684     0.742494     0.262466  Biso 1.000000     H
    H   1.0     0.804084     0.761898     0.278314  Biso 1.000000     H
    H   1.0     0.451883     0.692351     0.372436  Biso 1.000000     H
    H   1.0     0.998835     0.733294     0.366187  Biso 1.000000     H
    H   1.0     0.116197     0.766790     0.302777  Biso 1.000000     H
    H   1.0     0.608137     0.711963     0.331592  Biso 1.000000     H
    H   1.0     0.123137    -0.069655     0.781847  Biso 1.000000     H
    H   1.0     0.596499    -0.026385     0.797062  Biso 1.000000     H
    H   1.0     0.222008     0.854355     0.818738  Biso 1.000000     H
    H   1.0     0.675185     0.899840     0.849220  Biso 1.000000     H
    H   1.0     0.141654     0.799741     0.684746  Biso 1.000000     H
    H   1.0     0.662928     0.855006     0.717832  Biso 1.000000     H
    H   1.0     0.040278    -0.117268     0.673310  Biso 1.000000     H
    H   1.0     0.542691    -0.074916     0.687411  Biso 1.000000     H
    H   1.0     0.530940     0.811846     0.605868  Biso 1.000000     H
    H   1.0     0.953261     0.775112     0.592869  Biso 1.000000     H
    H   1.0     0.373584     0.827814     0.647343  Biso 1.000000     H
    H   1.0     0.830983     0.807347     0.653851  Biso 1.000000     H
    H   1.0     0.017008     0.669099     0.676108  Biso 1.000000     H
    H   1.0     0.592315     0.711917     0.698597  Biso 1.000000     H
    H   1.0     0.438126     0.679696     0.797519  Biso 1.000000     H
    H   1.0     0.904364     0.646836     0.792338  Biso 1.000000     H
    H   1.0     0.317926     0.747862     0.763017  Biso 1.000000     H
    H   1.0     0.803007     0.728924     0.778166  Biso 1.000000     H
    H   1.0     0.452754     0.797723     0.872577  Biso 1.000000     H
    H   1.0     0.998032     0.757024     0.866045  Biso 1.000000     H
    H   1.0     0.115089     0.723164     0.802551  Biso 1.000000     H
    H   1.0     0.608286     0.777661     0.831123  Biso 1.000000     H
    H   1.0     0.379014     0.430823     0.717984  Biso 1.000000     H
    H   1.0     0.906347     0.473971     0.702886  Biso 1.000000     H
    H   1.0     0.279877     0.354938     0.681143  Biso 1.000000     H
    H   1.0     0.827087     0.400485     0.650526  Biso 1.000000     H
    H   1.0     0.359769     0.300083     0.814959  Biso 1.000000     H
    H   1.0     0.838771     0.354907     0.781379  Biso 1.000000     H
    H   1.0     0.460977     0.383056     0.826631  Biso 1.000000     H
    H   1.0     0.958958     0.424724     0.812385  Biso 1.000000     H
    H   1.0    -0.029885     0.311106     0.893282  Biso 1.000000     H
    H   1.0     0.547900     0.275430     0.907059  Biso 1.000000     H
    H   1.0     0.127760     0.327128     0.852164  Biso 1.000000     H
    H   1.0     0.670359     0.307575     0.846231  Biso 1.000000     H
    H   1.0     0.484581     0.169403     0.823738  Biso 1.000000     H
    H   1.0     0.909353     0.211499     0.800127  Biso 1.000000     H
    H   1.0     0.063757     0.179702     0.701056  Biso 1.000000     H
    H   1.0     0.597440     0.146982     0.707574  Biso 1.000000     H
    H   1.0     0.183853     0.247616     0.736045  Biso 1.000000     H
    H   1.0     0.698785     0.228981     0.721847  Biso 1.000000     H
    H   1.0     0.049322     0.298010     0.626629  Biso 1.000000     H
    H   1.0     0.504017     0.257191     0.633857  Biso 1.000000     H
    H   1.0     0.386756     0.223506     0.697221  Biso 1.000000     H
    H   1.0     0.893646     0.278024     0.667905  Biso 1.000000     H
    C   1.0     0.385565     0.112832     0.185945  Biso 1.000000     C
    C   1.0     0.929301     0.066141     0.169133  Biso 1.000000     C
    C   1.0     0.461380     0.165709     0.304881  Biso 1.000000     C
    C   1.0     0.950114     0.121593     0.288184  Biso 1.000000     C
    C   1.0     0.020604     0.178207     0.340970  Biso 1.000000     C
    C   1.0     0.571547     0.211642     0.347989  Biso 1.000000     C
    C   1.0     0.015365     0.257956     0.307280  Biso 1.000000     C
    C   1.0     0.581728     0.290992     0.315355  Biso 1.000000     C
    C   1.0     0.074633     0.255082     0.230052  Biso 1.000000     C
    C   1.0     0.599043     0.286564     0.231449  Biso 1.000000     C
    C   1.0     0.002698     0.195258     0.180891  Biso 1.000000     C
    C   1.0     0.487215     0.238312     0.192877  Biso 1.000000     C
    C   1.0     0.093769     0.312435     0.357605  Biso 1.000000     C
    C   1.0     0.689641     0.339946     0.355111  Biso 1.000000     C
    C   1.0     0.116755     0.612496     0.313422  Biso 1.000000     C
    C   1.0     0.573093     0.566043     0.330584  Biso 1.000000     C
    C   1.0     0.041027     0.665584     0.194655  Biso 1.000000     C
    C   1.0     0.553148     0.621714     0.211675  Biso 1.000000     C
    C   1.0     0.483102     0.678487     0.158883  Biso 1.000000     C
    C   1.0     0.931083     0.711808     0.151685  Biso 1.000000     C
    C   1.0     0.487992     0.758226     0.192735  Biso 1.000000     C
    C   1.0     0.921394     0.791182     0.184449  Biso 1.000000     C
    C   1.0     0.428165     0.755225     0.269821  Biso 1.000000     C
    C   1.0     0.904161     0.786802     0.268360  Biso 1.000000     C
    C   1.0     0.499799     0.695284     0.318985  Biso 1.000000     C
    C   1.0     0.000000     0.738244     0.306797  Biso 1.000000     C
    C   1.0     0.409743     0.812783     0.142353  Biso 1.000000     C
    C   1.0     0.813606     0.840312     0.144777  Biso 1.000000     C
    C   1.0     0.116651     0.877406     0.813357  Biso 1.000000     C
    C   1.0     0.574087     0.923652     0.830523  Biso 1.000000     C
    C   1.0     0.040314     0.824543     0.694546  Biso 1.000000     C
    C   1.0     0.552060     0.868167     0.711426  Biso 1.000000     C
    C   1.0     0.480943     0.811564     0.658829  Biso 1.000000     C
    C   1.0     0.930103     0.778546     0.651566  Biso 1.000000     C
    C   1.0     0.486196     0.731831     0.692589  Biso 1.000000     C
    C   1.0     0.920095     0.699225     0.684284  Biso 1.000000     C
    C   1.0     0.427399     0.734899     0.769924  Biso 1.000000     C
    C   1.0     0.902917     0.703718     0.768195  Biso 1.000000     C
    C   1.0     0.499955     0.794645     0.818923  Biso 1.000000     C
    C   1.0     0.000000     0.751989     0.806639  Biso 1.000000     C
    C   1.0     0.407577     0.677205     0.642477  Biso 1.000000     C
    C   1.0     0.812173     0.650237     0.644611  Biso 1.000000     C
    C   1.0     0.385323     0.377786     0.686510  Biso 1.000000     C
    C   1.0     0.928357     0.423994     0.669250  Biso 1.000000     C
    C   1.0     0.461127     0.324848     0.805336  Biso 1.000000     C
    C   1.0     0.949641     0.367918     0.788021  Biso 1.000000     C
    C   1.0     0.020439     0.311012     0.840417  Biso 1.000000     C
    C   1.0     0.571265     0.278815     0.848394  Biso 1.000000     C
    C   1.0     0.015420     0.231393     0.806215  Biso 1.000000     C
    C   1.0     0.581493     0.199459     0.815641  Biso 1.000000     C
    C   1.0     0.074389     0.234779     0.728960  Biso 1.000000     C
    C   1.0     0.598844     0.203883     0.731747  Biso 1.000000     C
    C   1.0     0.002012     0.294792     0.680232  Biso 1.000000     C
    C   1.0     0.487028     0.252228     0.693238  Biso 1.000000     C
    C   1.0     0.094193     0.176740     0.856222  Biso 1.000000     C
    C   1.0     0.689460     0.150457     0.855329  Biso 1.000000     C
    N   1.0     0.484777     0.162337     0.225159  Biso 1.000000     N
    N   1.0     0.000000     0.119785     0.214987  Biso 1.000000     N
    N   1.0     0.017709     0.662265     0.274373  Biso 1.000000     N
    N   1.0     0.493050     0.619835     0.284724  Biso 1.000000     N
    N   1.0     0.017181     0.827944     0.774293  Biso 1.000000     N
    N   1.0     0.493243     0.870105     0.784799  Biso 1.000000     N
    N   1.0     0.484605     0.328214     0.725629  Biso 1.000000     N
    N   1.0     0.000000     0.370108     0.714760  Biso 1.000000     N
    O   1.0     0.329830     0.000000     0.065259  Biso 1.000000     O
    O   1.0     0.855211     0.993638     0.047264  Biso 1.000000     O
    O   1.0     0.406690     0.146140     0.035843  Biso 1.000000     O
    O   1.0     0.000000     0.080205     0.028199  Biso 1.000000     O
    O   1.0     0.091300     0.957699     0.105333  Biso 1.000000     O
    O   1.0     0.577583     0.000000     0.103699  Biso 1.000000     O
    O   1.0     0.038936     0.375197     0.378233  Biso 1.000000     O
    O   1.0     0.741734     0.321885     0.419687  Biso 1.000000     O
    O   1.0     0.215868     0.297598     0.380991  Biso 1.000000     O
    O   1.0     0.726868     0.401412     0.324250  Biso 1.000000     O
    O   1.0     0.172040     0.520136     0.434295  Biso 1.000000     O
    O   1.0     0.647346     0.493532     0.452304  Biso 1.000000     O
    O   1.0     0.094233     0.645948     0.463338  Biso 1.000000     O
    O   1.0     0.457572     0.579908     0.471542  Biso 1.000000     O
    O   1.0     0.411301     0.457455     0.394259  Biso 1.000000     O
    O   1.0     0.924452     0.549489     0.394937  Biso 1.000000     O
    O   1.0     0.464482     0.875507     0.121815  Biso 1.000000     O
    O   1.0     0.760821     0.821961     0.080419  Biso 1.000000     O
    O   1.0     0.287722     0.797954     0.118850  Biso 1.000000     O
    O   1.0     0.777125     0.902113     0.175428  Biso 1.000000     O
    O   1.0     0.173032    -0.030489     0.934255  Biso 1.000000     O
    O   1.0     0.648048    -0.003351     0.952229  Biso 1.000000     O
    O   1.0     0.094845     0.844002     0.963359  Biso 1.000000     O
    O   1.0     0.459453     0.909791     0.971617  Biso 1.000000     O
    O   1.0     0.411544     0.031844     0.894076  Biso 1.000000     O
    O   1.0     0.925135    -0.059210     0.895301  Biso 1.000000     O
    O   1.0     0.462617     0.614599     0.621603  Biso 1.000000     O
    O   1.0     0.759704     0.668434     0.580150  Biso 1.000000     O
    O   1.0     0.285132     0.691694     0.619483  Biso 1.000000     O
    O   1.0     0.775342     0.588646     0.675393  Biso 1.000000     O
    O   1.0     0.328709     0.469609     0.565544  Biso 1.000000     O
    O   1.0     0.854452     0.496739     0.547322  Biso 1.000000     O
    O   1.0     0.406852     0.343910     0.536561  Biso 1.000000     O
    O   1.0     0.000000     0.409925     0.528328  Biso 1.000000     O
    O   1.0     0.090257     0.532361     0.605686  Biso 1.000000     O
    O   1.0     0.576823     0.440690     0.604134  Biso 1.000000     O
    O   1.0     0.038541     0.114827     0.878219  Biso 1.000000     O
    O   1.0     0.741620     0.168547     0.919895  Biso 1.000000     O
    O   1.0     0.217294     0.190661     0.878238  Biso 1.000000     O
    O   1.0     0.726721     0.088941     0.824409  Biso 1.000000     O
    P   1.0     0.433684     0.083525     0.094341  Biso 1.000000     P
    P   1.0     0.992563     0.022621     0.086467  Biso 1.000000     P
    P   1.0     0.068110     0.583219     0.404846  Biso 1.000000     P
    P   1.0     0.509816     0.522432     0.413159  Biso 1.000000     P
    P   1.0     0.068593     0.906706     0.904938  Biso 1.000000     P
    P   1.0     0.510899     0.967290     0.913132  Biso 1.000000     P
    P   1.0     0.433231     0.406786     0.594858  Biso 1.000000     P
    P   1.0     0.991585     0.467523     0.586642  Biso 1.000000     P
    Y   1.0     0.249040     0.086760     0.957653  Biso 1.000000     Y
    Y   1.0     0.853887     0.052677     0.931845  Biso 1.000000     Y
    Y   1.0     0.252459     0.586800     0.541678  Biso 1.000000     Y
    Y   1.0     0.648003     0.552503     0.567865  Biso 1.000000     Y
    Y   1.0     0.253848     0.903099     0.041514  Biso 1.000000     Y
    Y   1.0     0.649127     0.937872     0.067910  Biso 1.000000     Y
    Y   1.0     0.248807     0.403005     0.458181  Biso 1.000000     Y
    Y   1.0     0.853778     0.437699     0.431801  Biso 1.000000     Y
