#======================================================================

# CRYSTAL DATA

#----------------------------------------------------------------------

data_VESTA_phase_1


_pd_phase_name                         MOF
_cell_length_a                         17.00500
_cell_length_b                         18.73500
_cell_length_c                         19.36800
_cell_angle_alpha                      90.00500
_cell_angle_beta                       90.01300
_cell_angle_gamma                      101.51000
_symmetry_space_group_name_H-M         "P 1"
_symmetry_Int_Tables_number            1

loop_
_symmetry_equiv_pos_as_xyz
   "x, y, z"

loop_
   _atom_site_label
   _atom_site_occupancy
   _atom_site_fract_x
   _atom_site_fract_y
   _atom_site_fract_z
   _atom_site_adp_type
   _atom_site_B_iso_or_equiv
   _atom_site_type_symbol
    H   1.0     0.424710     0.302032     0.422636  Biso 1.000000     H
    H   1.0     0.924654     0.301924     0.422652  Biso 1.000000     H
    H   1.0     0.397536     0.206308     0.330682  Biso 1.000000     H
    H   1.0     0.897586     0.206310     0.330597  Biso 1.000000     H
    H   1.0     0.228185     0.389508     0.341246  Biso 1.000000     H
    H   1.0     0.728232     0.389504     0.341196  Biso 1.000000     H
    H   1.0     0.352588     0.118033     0.260985  Biso 1.000000     H
    H   1.0     0.852588     0.117993     0.260931  Biso 1.000000     H
    H   1.0     0.302064     0.029318     0.168577  Biso 1.000000     H
    H   1.0     0.802018     0.029268     0.168545  Biso 1.000000     H
    H   1.0     0.141272     0.152525     0.099081  Biso 1.000000     H
    H   1.0     0.641190     0.152462     0.099101  Biso 1.000000     H
    H   1.0     0.183250     0.246316     0.190246  Biso 1.000000     H
    H   1.0     0.683243     0.246288     0.190217  Biso 1.000000     H
    H   1.0     0.076577     0.569253     0.766635  Biso 1.000000     H
    H   1.0     0.576582     0.569291     0.766578  Biso 1.000000     H
    H   1.0     0.124497     0.662647     0.858479  Biso 1.000000     H
    H   1.0     0.624516     0.662652     0.858449  Biso 1.000000     H
    H   1.0     0.386275     0.682683     0.722889  Biso 1.000000     H
    H   1.0     0.886321     0.682689     0.722814  Biso 1.000000     H
    H   1.0     0.122895     0.722283     0.957414  Biso 1.000000     H
    H   1.0     0.622917     0.722290     0.957414  Biso 1.000000     H
    H   1.0     0.161723     0.826811     0.037578  Biso 1.000000     H
    H   1.0     0.661646     0.826781     0.037636  Biso 1.000000     H
    H   1.0     0.036729     0.955081     0.922850  Biso 1.000000     H
    H   1.0     0.536693     0.955067     0.922885  Biso 1.000000     H
    H   1.0     0.491876     0.855519     0.838934  Biso 1.000000     H
    H   1.0     0.991859     0.855520     0.838915  Biso 1.000000     H
    H   1.0     0.075184     0.198021     0.922533  Biso 1.000000     H
    H   1.0     0.575173     0.198000     0.922554  Biso 1.000000     H
    H   1.0     0.102264     0.293679     0.830549  Biso 1.000000     H
    H   1.0     0.602276     0.293686     0.830596  Biso 1.000000     H
    H   1.0     0.271728     0.110569     0.841198  Biso 1.000000     H
    H   1.0     0.771701     0.110540     0.841196  Biso 1.000000     H
    H   1.0     0.147298     0.382055     0.760913  Biso 1.000000     H
    H   1.0     0.647274     0.382036     0.760941  Biso 1.000000     H
    H   1.0     0.197896     0.470771     0.668565  Biso 1.000000     H
    H   1.0     0.697841     0.470744     0.668578  Biso 1.000000     H
    H   1.0     0.358660     0.347521     0.599152  Biso 1.000000     H
    H   1.0     0.858624     0.347507     0.599162  Biso 1.000000     H
    H   1.0     0.316549     0.253683     0.690211  Biso 1.000000     H
    H   1.0     0.816568     0.253701     0.690260  Biso 1.000000     H
    H   1.0     0.423401     0.930773     0.266626  Biso 1.000000     H
    H   1.0     0.923503     0.930850     0.266730  Biso 1.000000     H
    H   1.0     0.375458     0.837409     0.358449  Biso 1.000000     H
    H   1.0     0.875511     0.837449     0.358504  Biso 1.000000     H
    H   1.0     0.113561     0.817213     0.222835  Biso 1.000000     H
    H   1.0     0.613650     0.817330     0.222934  Biso 1.000000     H
    H   1.0     0.376988     0.777755     0.457363  Biso 1.000000     H
    H   1.0     0.877028     0.777782     0.457381  Biso 1.000000     H
    H   1.0     0.338212     0.673273     0.537563  Biso 1.000000     H
    H   1.0     0.838144     0.673289     0.537554  Biso 1.000000     H
    H   1.0     0.463170     0.544958     0.422847  Biso 1.000000     H
    H   1.0     0.963139     0.544948     0.422916  Biso 1.000000     H
    H   1.0     0.008054     0.644473     0.338992  Biso 1.000000     H
    H   1.0     0.508054     0.644513     0.338957  Biso 1.000000     H
    H   1.0     0.075111     0.698024     0.577550  Biso 1.000000     H
    H   1.0     0.575177     0.698053     0.577482  Biso 1.000000     H
    H   1.0     0.102303     0.793683     0.669556  Biso 1.000000     H
    H   1.0     0.602261     0.793690     0.669517  Biso 1.000000     H
    H   1.0     0.271693     0.610530     0.658807  Biso 1.000000     H
    H   1.0     0.771668     0.610535     0.658899  Biso 1.000000     H
    H   1.0     0.147345     0.881987     0.739125  Biso 1.000000     H
    H   1.0     0.647279     0.882028     0.739187  Biso 1.000000     H
    H   1.0     0.197887     0.970729     0.831508  Biso 1.000000     H
    H   1.0     0.697905     0.970765     0.831556  Biso 1.000000     H
    H   1.0     0.358669     0.847528     0.901032  Biso 1.000000     H
    H   1.0     0.858716     0.847541     0.900972  Biso 1.000000     H
    H   1.0     0.316643     0.753686     0.809923  Biso 1.000000     H
    H   1.0     0.816596     0.753698     0.809878  Biso 1.000000     H
    H   1.0     0.423273     0.430713     0.233589  Biso 1.000000     H
    H   1.0     0.923318     0.430742     0.233552  Biso 1.000000     H
    H   1.0     0.375332     0.337346     0.141726  Biso 1.000000     H
    H   1.0     0.875336     0.337380     0.141694  Biso 1.000000     H
    H   1.0     0.113589     0.317278     0.277241  Biso 1.000000     H
    H   1.0     0.613591     0.317334     0.277263  Biso 1.000000     H
    H   1.0     0.376965     0.277749     0.042725  Biso 1.000000     H
    H   1.0     0.876891     0.277697     0.042705  Biso 1.000000     H
    H   1.0     0.338216     0.173263     0.962503  Biso 1.000000     H
    H   1.0     0.838203     0.173201     0.962483  Biso 1.000000     H
    H   1.0     0.463175     0.044964     0.077231  Biso 1.000000     H
    H   1.0     0.963167     0.044944     0.077257  Biso 1.000000     H
    H   1.0     0.008021     0.144522     0.161183  Biso 1.000000     H
    H   1.0     0.508029     0.144516     0.161173  Biso 1.000000     H
    H   1.0     0.424668     0.801967     0.077517  Biso 1.000000     H
    H   1.0     0.924716     0.801975     0.077540  Biso 1.000000     H
    H   1.0     0.397594     0.706315     0.169504  Biso 1.000000     H
    H   1.0     0.897630     0.706360     0.169563  Biso 1.000000     H
    H   1.0     0.228196     0.889481     0.158919  Biso 1.000000     H
    H   1.0     0.728248     0.889530     0.158883  Biso 1.000000     H
    H   1.0     0.352613     0.617993     0.239195  Biso 1.000000     H
    H   1.0     0.852590     0.618025     0.239139  Biso 1.000000     H
    H   1.0     0.301990     0.529263     0.331526  Biso 1.000000     H
    H   1.0     0.802054     0.529306     0.331497  Biso 1.000000     H
    H   1.0     0.141228     0.652524     0.400935  Biso 1.000000     H
    H   1.0     0.641258     0.652516     0.400944  Biso 1.000000     H
    H   1.0     0.183335     0.746347     0.309863  Biso 1.000000     H
    H   1.0     0.683286     0.746331     0.309858  Biso 1.000000     H
    H   1.0     0.076439     0.069179     0.733408  Biso 1.000000     H
    H   1.0     0.576492     0.069222     0.733501  Biso 1.000000     H
    H   1.0     0.124381     0.162589     0.641615  Biso 1.000000     H
    H   1.0     0.624428     0.162584     0.641666  Biso 1.000000     H
    H   1.0     0.386297     0.182712     0.777247  Biso 1.000000     H
    H   1.0     0.886327     0.182743     0.777318  Biso 1.000000     H
    H   1.0     0.122785     0.222207     0.542745  Biso 1.000000     H
    H   1.0     0.622836     0.222205     0.542735  Biso 1.000000     H
    H   1.0     0.161637     0.326696     0.462559  Biso 1.000000     H
    H   1.0     0.661575     0.326664     0.462497  Biso 1.000000     H
    H   1.0     0.036678     0.455038     0.577245  Biso 1.000000     H
    H   1.0     0.536641     0.455000     0.577212  Biso 1.000000     H
    H   1.0     0.491812     0.355473     0.661145  Biso 1.000000     H
    H   1.0     0.991814     0.355517     0.661182  Biso 1.000000     H
    C   1.0     0.336608     0.408640     0.446416  Biso 1.000000     C
    C   1.0     0.836581     0.408590     0.446411  Biso 1.000000     C
    C   1.0     0.327528     0.352546     0.390206  Biso 1.000000     C
    C   1.0     0.827515     0.352492     0.390198  Biso 1.000000     C
    C   1.0     0.375704     0.300200     0.385968  Biso 1.000000     C
    C   1.0     0.875682     0.300137     0.385958  Biso 1.000000     C
    C   1.0     0.359965     0.246892     0.334822  Biso 1.000000     C
    C   1.0     0.859991     0.246873     0.334765  Biso 1.000000     C
    C   1.0     0.296231     0.246900     0.288614  Biso 1.000000     C
    C   1.0     0.796273     0.246896     0.288546  Biso 1.000000     C
    C   1.0     0.267114     0.349786     0.340471  Biso 1.000000     C
    C   1.0     0.767139     0.349763     0.340430  Biso 1.000000     C
    C   1.0     0.272256     0.191153     0.233917  Biso 1.000000     C
    C   1.0     0.772272     0.191134     0.233866  Biso 1.000000     C
    C   1.0     0.305317     0.128606     0.226847  Biso 1.000000     C
    C   1.0     0.805311     0.128573     0.226802  Biso 1.000000     C
    C   1.0     0.277339     0.078265     0.175193  Biso 1.000000     C
    C   1.0     0.777306     0.078222     0.175163  Biso 1.000000     C
    C   1.0     0.187842     0.147245     0.136304  Biso 1.000000     C
    C   1.0     0.687792     0.147198     0.136299  Biso 1.000000     C
    C   1.0     0.212135     0.199668     0.186546  Biso 1.000000     C
    C   1.0     0.712123     0.199638     0.186518  Biso 1.000000     C
    C   1.0     0.448342     0.566492     0.679461  Biso 1.000000     C
    C   1.0     0.948335     0.566471     0.679457  Biso 1.000000     C
    C   1.0     0.477901     0.618889     0.737543  Biso 1.000000     C
    C   1.0     0.977894     0.618864     0.737544  Biso 1.000000     C
    C   1.0     0.044916     0.613212     0.777355  Biso 1.000000     C
    C   1.0     0.544912     0.613235     0.777334  Biso 1.000000     C
    C   1.0     0.070821     0.664886     0.828482  Biso 1.000000     C
    C   1.0     0.570823     0.664892     0.828475  Biso 1.000000     C
    C   1.0     0.028928     0.721473     0.838788  Biso 1.000000     C
    C   1.0     0.528934     0.721478     0.838793  Biso 1.000000     C
    C   1.0     0.439464     0.676856     0.752018  Biso 1.000000     C
    C   1.0     0.939484     0.676857     0.751977  Biso 1.000000     C
    C   1.0     0.053962     0.780169     0.890183  Biso 1.000000     C
    C   1.0     0.553975     0.780172     0.890189  Biso 1.000000     C
    C   1.0     0.102572     0.772876     0.947343  Biso 1.000000     C
    C   1.0     0.602584     0.772879     0.947350  Biso 1.000000     C
    C   1.0     0.124441     0.830972    -0.007424  Biso 1.000000     C
    C   1.0     0.624403     0.830957    -0.007388  Biso 1.000000     C
    C   1.0     0.054400     0.902718     0.929469  Biso 1.000000     C
    C   1.0     0.554372     0.902706     0.929497  Biso 1.000000     C
    C   1.0     0.029418     0.846948     0.882396  Biso 1.000000     C
    C   1.0     0.529421     0.846947     0.882408  Biso 1.000000     C
    C   1.0     0.163285     0.091391     0.946333  Biso 1.000000     C
    C   1.0     0.663293     0.091385     0.946350  Biso 1.000000     C
    C   1.0     0.172360     0.147496     0.890130  Biso 1.000000     C
    C   1.0     0.672357     0.147487     0.890150  Biso 1.000000     C
    C   1.0     0.124170     0.199832     0.885869  Biso 1.000000     C
    C   1.0     0.624172     0.199828     0.885901  Biso 1.000000     C
    C   1.0     0.139869     0.253123     0.834717  Biso 1.000000     C
    C   1.0     0.639875     0.253124     0.834756  Biso 1.000000     C
    C   1.0     0.203604     0.253129     0.788535  Biso 1.000000     C
    C   1.0     0.703602     0.253126     0.788566  Biso 1.000000     C
    C   1.0     0.232777     0.150275     0.840414  Biso 1.000000     C
    C   1.0     0.732763     0.150258     0.840426  Biso 1.000000     C
    C   1.0     0.227583     0.308884     0.733863  Biso 1.000000     C
    C   1.0     0.727580     0.308883     0.733897  Biso 1.000000     C
    C   1.0     0.194566     0.371459     0.726799  Biso 1.000000     C
    C   1.0     0.694546     0.371447     0.726827  Biso 1.000000     C
    C   1.0     0.222588     0.421805     0.675180  Biso 1.000000     C
    C   1.0     0.722548     0.421786     0.675198  Biso 1.000000     C
    C   1.0     0.312059     0.352799     0.636327  Biso 1.000000     C
    C   1.0     0.812035     0.352791     0.636348  Biso 1.000000     C
    C   1.0     0.287706     0.300358     0.686521  Biso 1.000000     C
    C   1.0     0.787708     0.300363     0.686558  Biso 1.000000     C
    C   1.0     0.051623     0.933542     0.179517  Biso 1.000000     C
    C   1.0     0.551597     0.933553     0.179517  Biso 1.000000     C
    C   1.0     0.022084     0.881141     0.237591  Biso 1.000000     C
    C   1.0     0.522059     0.881157     0.237590  Biso 1.000000     C
    C   1.0     0.455059     0.886818     0.277371  Biso 1.000000     C
    C   1.0     0.955113     0.886849     0.277423  Biso 1.000000     C
    C   1.0     0.429142     0.835159     0.328487  Biso 1.000000     C
    C   1.0     0.929174     0.835174     0.328522  Biso 1.000000     C
    C   1.0     0.471018     0.778563     0.338804  Biso 1.000000     C
    C   1.0     0.970998     0.778534     0.338799  Biso 1.000000     C
    C   1.0     0.060431     0.823099     0.252002  Biso 1.000000     C
    C   1.0     0.560472     0.823171     0.252055  Biso 1.000000     C
    C   1.0     0.445962     0.719873     0.390180  Biso 1.000000     C
    C   1.0     0.945944     0.719855     0.390190  Biso 1.000000     C
    C   1.0     0.397333     0.727168     0.447310  Biso 1.000000     C
    C   1.0     0.897325     0.727174     0.447321  Biso 1.000000     C
    C   1.0     0.375466     0.669086     0.492562  Biso 1.000000     C
    C   1.0     0.875425     0.669095     0.492573  Biso 1.000000     C
    C   1.0     0.445505     0.597324     0.429466  Biso 1.000000     C
    C   1.0     0.945470     0.597315     0.429506  Biso 1.000000     C
    C   1.0     0.470502     0.653090     0.382411  Biso 1.000000     C
    C   1.0     0.970472     0.653064     0.382436  Biso 1.000000     C
    C   1.0     0.163206     0.591393     0.553699  Biso 1.000000     C
    C   1.0     0.663267     0.591406     0.553710  Biso 1.000000     C
    C   1.0     0.172306     0.647485     0.609918  Biso 1.000000     C
    C   1.0     0.672342     0.647510     0.609920  Biso 1.000000     C
    C   1.0     0.124123     0.699823     0.614204  Biso 1.000000     C
    C   1.0     0.624171     0.699863     0.614158  Biso 1.000000     C
    C   1.0     0.139883     0.753111     0.665368  Biso 1.000000     C
    C   1.0     0.639862     0.753132     0.665346  Biso 1.000000     C
    C   1.0     0.203649     0.753100     0.711540  Biso 1.000000     C
    C   1.0     0.703585     0.753116     0.711561  Biso 1.000000     C
    C   1.0     0.232752     0.650242     0.659625  Biso 1.000000     C
    C   1.0     0.732744     0.650263     0.659667  Biso 1.000000     C
    C   1.0     0.227643     0.808850     0.766231  Biso 1.000000     C
    C   1.0     0.727591     0.808880     0.766238  Biso 1.000000     C
    C   1.0     0.194609     0.871415     0.773272  Biso 1.000000     C
    C   1.0     0.694562     0.871446     0.773307  Biso 1.000000     C
    C   1.0     0.222596     0.921771     0.824909  Biso 1.000000     C
    C   1.0     0.722597     0.921800     0.824934  Biso 1.000000     C
    C   1.0     0.312084     0.852790     0.863817  Biso 1.000000     C
    C   1.0     0.812102     0.852808     0.863787  Biso 1.000000     C
    C   1.0     0.287772     0.800344     0.813597  Biso 1.000000     C
    C   1.0     0.787739     0.800362     0.813580  Biso 1.000000     C
    C   1.0     0.051598     0.433513     0.320656  Biso 1.000000     C
    C   1.0     0.551578     0.433541     0.320665  Biso 1.000000     C
    C   1.0     0.022005     0.381118     0.262580  Biso 1.000000     C
    C   1.0     0.521980     0.381135     0.262599  Biso 1.000000     C
    C   1.0     0.454952     0.386777     0.222826  Biso 1.000000     C
    C   1.0     0.954967     0.386784     0.222798  Biso 1.000000     C
    C   1.0     0.429033     0.335113     0.171692  Biso 1.000000     C
    C   1.0     0.929022     0.335120     0.171669  Biso 1.000000     C
    C   1.0     0.470941     0.278544     0.161351  Biso 1.000000     C
    C   1.0     0.970898     0.278527     0.161336  Biso 1.000000     C
    C   1.0     0.060401     0.323122     0.248117  Biso 1.000000     C
    C   1.0     0.560408     0.323163     0.248127  Biso 1.000000     C
    C   1.0     0.445912     0.219862     0.109939  Biso 1.000000     C
    C   1.0     0.945864     0.219838     0.109932  Biso 1.000000     C
    C   1.0     0.397296     0.227158     0.052784  Biso 1.000000     C
    C   1.0     0.897248     0.227120     0.052772  Biso 1.000000     C
    C   1.0     0.375462     0.169079     0.000000  Biso 1.000000     C
    C   1.0     0.875439     0.169036     0.000000  Biso 1.000000     C
    C   1.0     0.445500     0.097326     0.070624  Biso 1.000000     C
    C   1.0     0.945485     0.097302     0.070635  Biso 1.000000     C
    C   1.0     0.470471     0.153088     0.117708  Biso 1.000000     C
    C   1.0     0.970439     0.153073     0.117711  Biso 1.000000     C
    C   1.0     0.336563     0.908611     0.053742  Biso 1.000000     C
    C   1.0     0.836627     0.908621     0.053728  Biso 1.000000     C
    C   1.0     0.327508     0.852511     0.109944  Biso 1.000000     C
    C   1.0     0.827562     0.852536     0.109942  Biso 1.000000     C
    C   1.0     0.375682     0.800158     0.114180  Biso 1.000000     C
    C   1.0     0.875732     0.800184     0.114203  Biso 1.000000     C
    C   1.0     0.359999     0.746880     0.165345  Biso 1.000000     C
    C   1.0     0.860027     0.746916     0.165373  Biso 1.000000     C
    C   1.0     0.296297     0.746900     0.211557  Biso 1.000000     C
    C   1.0     0.796294     0.746932     0.211552  Biso 1.000000     C
    C   1.0     0.267124     0.849757     0.159683  Biso 1.000000     C
    C   1.0     0.767164     0.849795     0.159666  Biso 1.000000     C
    C   1.0     0.272311     0.691148     0.266228  Biso 1.000000     C
    C   1.0     0.772295     0.691171     0.266211  Biso 1.000000     C
    C   1.0     0.305334     0.628580     0.273301  Biso 1.000000     C
    C   1.0     0.805330     0.628607     0.273269  Biso 1.000000     C
    C   1.0     0.277298     0.578230     0.324913  Biso 1.000000     C
    C   1.0     0.777336     0.578259     0.324893  Biso 1.000000     C
    C   1.0     0.187824     0.647237     0.363758  Biso 1.000000     C
    C   1.0     0.687847     0.647240     0.363756  Biso 1.000000     C
    C   1.0     0.212182     0.699676     0.313563  Biso 1.000000     C
    C   1.0     0.712164     0.699678     0.313551  Biso 1.000000     C
    C   1.0     0.448328     0.066437     0.820599  Biso 1.000000     C
    C   1.0     0.948322     0.066437     0.820593  Biso 1.000000     C
    C   1.0     0.477858     0.118856     0.762546  Biso 1.000000     C
    C   1.0     0.977833     0.118852     0.762534  Biso 1.000000     C
    C   1.0     0.044804     0.113159     0.722700  Biso 1.000000     C
    C   1.0     0.544847     0.113187     0.722757  Biso 1.000000     C
    C   1.0     0.070712     0.164835     0.671599  Biso 1.000000     C
    C   1.0     0.570748     0.164838     0.671632  Biso 1.000000     C
    C   1.0     0.028861     0.221458     0.661335  Biso 1.000000     C
    C   1.0     0.528872     0.221436     0.661321  Biso 1.000000     C
    C   1.0     0.439451     0.176850     0.748103  Biso 1.000000     C
    C   1.0     0.939447     0.176869     0.748133  Biso 1.000000     C
    C   1.0     0.053894     0.280137     0.609949  Biso 1.000000     C
    C   1.0     0.553905     0.280112     0.609928  Biso 1.000000     C
    C   1.0     0.102496     0.272818     0.552808  Biso 1.000000     C
    C   1.0     0.602508     0.272800     0.552785  Biso 1.000000     C
    C   1.0     0.124368     0.330893     0.507548  Biso 1.000000     C
    C   1.0     0.624343     0.330868     0.507508  Biso 1.000000     C
    C   1.0     0.054347     0.402673     0.570640  Biso 1.000000     C
    C   1.0     0.554320     0.402639     0.570607  Biso 1.000000     C
    C   1.0     0.029376     0.346928     0.617721  Biso 1.000000     C
    C   1.0     0.529359     0.346892     0.617689  Biso 1.000000     C
    N   1.0     0.251459     0.298924     0.291298  Biso 1.000000     N
    N   1.0     0.751495     0.298917     0.291242  Biso 1.000000     N
    N   1.0     0.219345     0.086828     0.130325  Biso 1.000000     N
    N   1.0     0.719296     0.086784     0.130315  Biso 1.000000     N
    N   1.0     0.463663     0.727051     0.800766  Biso 1.000000     N
    N   1.0     0.963640     0.727035     0.800748  Biso 1.000000     N
    N   1.0     0.101616     0.895289     0.983863  Biso 1.000000     N
    N   1.0     0.601561     0.895266     0.983906  Biso 1.000000     N
    N   1.0     0.248407     0.201128     0.791246  Biso 1.000000     N
    N   1.0     0.748394     0.201116     0.791263  Biso 1.000000     N
    N   1.0     0.280595     0.413236     0.630353  Biso 1.000000     N
    N   1.0     0.780547     0.413214     0.630362  Biso 1.000000     N
    N   1.0     0.036241     0.772918     0.300747  Biso 1.000000     N
    N   1.0     0.536289     0.772990     0.300801  Biso 1.000000     N
    N   1.0     0.398294     0.604766     0.483842  Biso 1.000000     N
    N   1.0     0.898241     0.604768     0.483867  Biso 1.000000     N
    N   1.0     0.248436     0.701090     0.708811  Biso 1.000000     N
    N   1.0     0.748383     0.701113     0.708851  Biso 1.000000     N
    N   1.0     0.280589     0.913211     0.869777  Biso 1.000000     N
    N   1.0     0.780619     0.913233     0.869768  Biso 1.000000     N
    N   1.0     0.036207     0.272956     0.199345  Biso 1.000000     N
    N   1.0     0.536225     0.272981     0.199366  Biso 1.000000     N
    N   1.0     0.398290     0.104762     0.016227  Biso 1.000000     N
    N   1.0     0.898286     0.104730     0.016229  Biso 1.000000     N
    N   1.0     0.251511     0.798914     0.208860  Biso 1.000000     N
    N   1.0     0.751513     0.798950     0.208839  Biso 1.000000     N
    N   1.0     0.219286     0.586798     0.369737  Biso 1.000000     N
    N   1.0     0.719338     0.586817     0.369735  Biso 1.000000     N
    N   1.0     0.463647     0.227044     0.699371  Biso 1.000000     N
    N   1.0     0.963628     0.227069     0.699403  Biso 1.000000     N
    N   1.0     0.101541     0.395215     0.516255  Biso 1.000000     N
    N   1.0     0.601508     0.395188     0.516216  Biso 1.000000     N
    O   1.0     0.285031     0.450073     0.449671  Biso 1.000000     O
    O   1.0     0.784995     0.450017     0.449659  Biso 1.000000     O
    O   1.0     0.393383     0.412611     0.489677  Biso 1.000000     O
    O   1.0     0.893348     0.412572     0.489680  Biso 1.000000     O
    O   1.0     0.386883     0.580966     0.646891  Biso 1.000000     O
    O   1.0     0.886878     0.580950     0.646889  Biso 1.000000     O
    O   1.0     0.483249     0.515410     0.666191  Biso 1.000000     O
    O   1.0     0.983252     0.515399     0.666174  Biso 1.000000     O
    O   1.0     0.214826     0.049925     0.949569  Biso 1.000000     O
    O   1.0     0.714852     0.049938     0.949600  Biso 1.000000     O
    O   1.0     0.106545     0.087445     0.989602  Biso 1.000000     O
    O   1.0     0.606541     0.087431     0.989612  Biso 1.000000     O
    O   1.0     0.113059     0.919078     0.146926  Biso 1.000000     O
    O   1.0     0.613017     0.919072     0.146915  Biso 1.000000     O
    O   1.0     0.016713     0.984631     0.166280  Biso 1.000000     O
    O   1.0     0.516701     0.984655     0.166288  Biso 1.000000     O
    O   1.0     0.214731     0.549906     0.550472  Biso 1.000000     O
    O   1.0     0.714833     0.549963     0.550464  Biso 1.000000     O
    O   1.0     0.106463     0.587452     0.510415  Biso 1.000000     O
    O   1.0     0.606536     0.587462     0.510411  Biso 1.000000     O
    O   1.0     0.113088     0.419053     0.353186  Biso 1.000000     O
    O   1.0     0.613060     0.419074     0.353202  Biso 1.000000     O
    O   1.0     0.016705     0.484599     0.333954  Biso 1.000000     O
    O   1.0     0.516700     0.484640     0.333943  Biso 1.000000     O
    O   1.0     0.284948     0.950007     0.050451  Biso 1.000000     O
    O   1.0     0.785033     0.950037     0.050444  Biso 1.000000     O
    O   1.0     0.393336     0.912590     0.010499  Biso 1.000000     O
    O   1.0     0.893391     0.912579     0.010482  Biso 1.000000     O
    O   1.0     0.386932     0.080927     0.853230  Biso 1.000000     O
    O   1.0     0.886908     0.080910     0.853209  Biso 1.000000     O
    O   1.0     0.483241     0.015343     0.833806  Biso 1.000000     O
    O   1.0     0.983226     0.015333     0.833786  Biso 1.000000     O
   Cd   1.0     0.152549     0.993088     0.057311  Biso 1.000000    Cd
   Cd   1.0     0.652512     0.993077     0.057307  Biso 1.000000    Cd
   Cd   1.0     0.347323     0.506968     0.557315  Biso 1.000000    Cd
   Cd   1.0     0.847289     0.506942     0.557316  Biso 1.000000    Cd
   Cd   1.0     0.347325     0.006935     0.942807  Biso 1.000000    Cd
   Cd   1.0     0.847363     0.006924     0.942802  Biso 1.000000    Cd
   Cd   1.0     0.152532     0.493054     0.442797  Biso 1.000000    Cd
   Cd   1.0     0.652555     0.493067     0.442798  Biso 1.000000    Cd
