#======================================================================

# CRYSTAL DATA

#----------------------------------------------------------------------

data_VESTA_phase_1


_pd_phase_name                         MOF
_cell_length_a                         17.74500
_cell_length_b                         22.72300
_cell_length_c                         17.91000
_cell_angle_alpha                      84.49400
_cell_angle_beta                       75.69300
_cell_angle_gamma                      67.14200
_symmetry_space_group_name_H-M         "P 1"
_symmetry_Int_Tables_number            1

loop_
_symmetry_equiv_pos_as_xyz
   "x, y, z"

loop_
   _atom_site_label
   _atom_site_occupancy
   _atom_site_fract_x
   _atom_site_fract_y
   _atom_site_fract_z
   _atom_site_adp_type
   _atom_site_B_iso_or_equiv
   _atom_site_type_symbol
    H   1.0     0.368694     0.025751     0.017544  Biso 1.000000     H
    H   1.0     0.368688     0.525760     0.017543  Biso 1.000000     H
    H   1.0     0.868696     0.025750     0.017544  Biso 1.000000     H
    H   1.0     0.868689     0.525760     0.017543  Biso 1.000000     H
    H   1.0     0.115502     0.034575     0.099232  Biso 1.000000     H
    H   1.0     0.115496     0.534584     0.099232  Biso 1.000000     H
    H   1.0     0.615504     0.034574     0.099233  Biso 1.000000     H
    H   1.0     0.615497     0.534585     0.099231  Biso 1.000000     H
    H   1.0     0.411960     0.434587     0.247894  Biso 1.000000     H
    H   1.0     0.411952     0.934595     0.247899  Biso 1.000000     H
    H   1.0     0.911960     0.434587     0.247897  Biso 1.000000     H
    H   1.0     0.911954     0.934595     0.247898  Biso 1.000000     H
    H   1.0     0.372446     0.224427     0.017312  Biso 1.000000     H
    H   1.0     0.372440     0.724437     0.017313  Biso 1.000000     H
    H   1.0     0.872448     0.224427     0.017312  Biso 1.000000     H
    H   1.0     0.872443     0.724435     0.017312  Biso 1.000000     H
    H   1.0     0.084765     0.215350     0.099400  Biso 1.000000     H
    H   1.0     0.084760     0.715358     0.099400  Biso 1.000000     H
    H   1.0     0.584766     0.215351     0.099400  Biso 1.000000     H
    H   1.0     0.584760     0.715360     0.099401  Biso 1.000000     H
    H   1.0     0.213997     0.315582     0.247876  Biso 1.000000     H
    H   1.0     0.213991     0.815591     0.247880  Biso 1.000000     H
    H   1.0     0.713999     0.315581     0.247874  Biso 1.000000     H
    H   1.0     0.713992     0.815591     0.247878  Biso 1.000000     H
    H   1.0     0.105534     0.025434     0.483085  Biso 1.000000     H
    H   1.0     0.105529     0.525442     0.483085  Biso 1.000000     H
    H   1.0     0.605535     0.025436     0.483087  Biso 1.000000     H
    H   1.0     0.605530     0.525441     0.483085  Biso 1.000000     H
    H   1.0     0.349529     0.034850     0.400405  Biso 1.000000     H
    H   1.0     0.349524     0.534858     0.400405  Biso 1.000000     H
    H   1.0     0.849529     0.034853     0.400407  Biso 1.000000     H
    H   1.0     0.849525     0.534857     0.400404  Biso 1.000000     H
    H   1.0     0.152595     0.435618     0.251881  Biso 1.000000     H
    H   1.0     0.152589     0.935626     0.251883  Biso 1.000000     H
    H   1.0     0.652599     0.435617     0.251878  Biso 1.000000     H
    H   1.0     0.652590     0.935626     0.251884  Biso 1.000000     H
    H   1.0     0.402830     0.224802     0.483252  Biso 1.000000     H
    H   1.0     0.402824     0.724811     0.483252  Biso 1.000000     H
    H   1.0     0.902832     0.224804     0.483250  Biso 1.000000     H
    H   1.0     0.902826     0.724812     0.483251  Biso 1.000000     H
    H   1.0     0.200435     0.215141     0.400197  Biso 1.000000     H
    H   1.0     0.200429     0.715150     0.400197  Biso 1.000000     H
    H   1.0     0.700436     0.215144     0.400195  Biso 1.000000     H
    H   1.0     0.700431     0.715150     0.400197  Biso 1.000000     H
    H   1.0     0.471375     0.314551     0.251863  Biso 1.000000     H
    H   1.0     0.471369     0.814559     0.251867  Biso 1.000000     H
    H   1.0     0.971376     0.314551     0.251866  Biso 1.000000     H
    H   1.0     0.971371     0.814559     0.251869  Biso 1.000000     H
    H   1.0     0.131306     0.474256     0.982448  Biso 1.000000     H
    H   1.0     0.131302     0.974264     0.982449  Biso 1.000000     H
    H   1.0     0.631308     0.474257     0.982448  Biso 1.000000     H
    H   1.0     0.631303     0.974264     0.982449  Biso 1.000000     H
    H   1.0     0.384498     0.465432     0.900759  Biso 1.000000     H
    H   1.0     0.384493     0.965439     0.900760  Biso 1.000000     H
    H   1.0     0.884499     0.465432     0.900759  Biso 1.000000     H
    H   1.0     0.884495     0.965439     0.900760  Biso 1.000000     H
    H   1.0     0.088042     0.065421     0.752093  Biso 1.000000     H
    H   1.0     0.088036     0.565430     0.752092  Biso 1.000000     H
    H   1.0     0.588043     0.065421     0.752093  Biso 1.000000     H
    H   1.0     0.588038     0.565430     0.752092  Biso 1.000000     H
    H   1.0     0.127552     0.275582     0.982679  Biso 1.000000     H
    H   1.0     0.127547     0.775590     0.982679  Biso 1.000000     H
    H   1.0     0.627553     0.275583     0.982680  Biso 1.000000     H
    H   1.0     0.627547     0.775592     0.982680  Biso 1.000000     H
    H   1.0     0.415233     0.284659     0.900592  Biso 1.000000     H
    H   1.0     0.415227     0.784668     0.900592  Biso 1.000000     H
    H   1.0     0.915235     0.284659     0.900592  Biso 1.000000     H
    H   1.0     0.915230     0.784667     0.900591  Biso 1.000000     H
    H   1.0     0.286003     0.184426     0.752114  Biso 1.000000     H
    H   1.0     0.285997     0.684434     0.752113  Biso 1.000000     H
    H   1.0     0.786004     0.184426     0.752115  Biso 1.000000     H
    H   1.0     0.785999     0.684434     0.752112  Biso 1.000000     H
    H   1.0     0.394466     0.474573     0.516905  Biso 1.000000     H
    H   1.0     0.394460     0.974583     0.516906  Biso 1.000000     H
    H   1.0     0.894467     0.474573     0.516905  Biso 1.000000     H
    H   1.0     0.894460     0.974586     0.516907  Biso 1.000000     H
    H   1.0     0.150471     0.465157     0.599585  Biso 1.000000     H
    H   1.0     0.150465     0.965167     0.599586  Biso 1.000000     H
    H   1.0     0.650472     0.465157     0.599585  Biso 1.000000     H
    H   1.0     0.650465     0.965169     0.599588  Biso 1.000000     H
    H   1.0     0.347405     0.064390     0.748109  Biso 1.000000     H
    H   1.0     0.347400     0.564398     0.748108  Biso 1.000000     H
    H   1.0     0.847407     0.064390     0.748109  Biso 1.000000     H
    H   1.0     0.847401     0.564399     0.748108  Biso 1.000000     H
    H   1.0     0.097170     0.275203     0.516741  Biso 1.000000     H
    H   1.0     0.097164     0.775212     0.516741  Biso 1.000000     H
    H   1.0     0.597171     0.275206     0.516739  Biso 1.000000     H
    H   1.0     0.597166     0.775212     0.516740  Biso 1.000000     H
    H   1.0     0.299565     0.284864     0.599795  Biso 1.000000     H
    H   1.0     0.299559     0.784873     0.599795  Biso 1.000000     H
    H   1.0     0.799567     0.284866     0.599794  Biso 1.000000     H
    H   1.0     0.799561     0.784874     0.599795  Biso 1.000000     H
    H   1.0     0.028625     0.185457     0.748125  Biso 1.000000     H
    H   1.0     0.028619     0.685466     0.748123  Biso 1.000000     H
    H   1.0     0.528626     0.185457     0.748125  Biso 1.000000     H
    H   1.0     0.528620     0.685466     0.748124  Biso 1.000000     H
    C   1.0     0.231845     0.069238     0.135002  Biso 1.000000     C
    C   1.0     0.231840     0.569246     0.135002  Biso 1.000000     C
    C   1.0     0.731848     0.069236     0.135002  Biso 1.000000     C
    C   1.0     0.731840     0.569247     0.135001  Biso 1.000000     C
    C   1.0     0.241271     0.033591     0.065173  Biso 1.000000     C
    C   1.0     0.241266     0.533599     0.065174  Biso 1.000000     C
    C   1.0     0.741273     0.033590     0.065174  Biso 1.000000     C
    C   1.0     0.741267     0.533599     0.065174  Biso 1.000000     C
    C   1.0     0.317219     0.014219     0.009224  Biso 1.000000     C
    C   1.0     0.317213     0.514228     0.009223  Biso 1.000000     C
    C   1.0     0.817221     0.014218     0.009224  Biso 1.000000     C
    C   1.0     0.817214     0.514229     0.009223  Biso 1.000000     C
    C   1.0     0.174127     0.019182     0.055510  Biso 1.000000     C
    C   1.0     0.174121     0.519191     0.055510  Biso 1.000000     C
    C   1.0     0.674129     0.019181     0.055511  Biso 1.000000     C
    C   1.0     0.674122     0.519192     0.055509  Biso 1.000000     C
    C   1.0     0.477632     0.407993     0.249072  Biso 1.000000     C
    C   1.0     0.477624     0.908002     0.249075  Biso 1.000000     C
    C   1.0     0.977632     0.407993     0.249074  Biso 1.000000     C
    C   1.0     0.977627     0.908002     0.249076  Biso 1.000000     C
    C   1.0     0.450487     0.180851     0.134947  Biso 1.000000     C
    C   1.0     0.450480     0.680860     0.134947  Biso 1.000000     C
    C   1.0     0.950489     0.180850     0.134947  Biso 1.000000     C
    C   1.0     0.950483     0.680859     0.134947  Biso 1.000000     C
    C   1.0     0.476030     0.216468     0.065148  Biso 1.000000     C
    C   1.0     0.476024     0.716477     0.065149  Biso 1.000000     C
    C   1.0     0.976032     0.216468     0.065148  Biso 1.000000     C
    C   1.0     0.976025     0.716477     0.065149  Biso 1.000000     C
    C   1.0     0.428117     0.235882     0.009102  Biso 1.000000     C
    C   1.0     0.428111     0.735892     0.009103  Biso 1.000000     C
    C   1.0     0.928120     0.235881     0.009102  Biso 1.000000     C
    C   1.0     0.928114     0.735890     0.009102  Biso 1.000000     C
    C   1.0     0.048053     0.230781     0.055603  Biso 1.000000     C
    C   1.0     0.048047     0.730789     0.055603  Biso 1.000000     C
    C   1.0     0.548053     0.230781     0.055603  Biso 1.000000     C
    C   1.0     0.548047     0.730791     0.055604  Biso 1.000000     C
    C   1.0     0.147735     0.342177     0.249064  Biso 1.000000     C
    C   1.0     0.147729     0.842186     0.249066  Biso 1.000000     C
    C   1.0     0.647737     0.342177     0.249062  Biso 1.000000     C
    C   1.0     0.647730     0.842186     0.249066  Biso 1.000000     C
    C   1.0     0.198425     0.069252     0.365260  Biso 1.000000     C
    C   1.0     0.198419     0.569260     0.365261  Biso 1.000000     C
    C   1.0     0.698425     0.069254     0.365262  Biso 1.000000     C
    C   1.0     0.698421     0.569259     0.365260  Biso 1.000000     C
    C   1.0     0.224899     0.033576     0.434938  Biso 1.000000     C
    C   1.0     0.224892     0.533585     0.434938  Biso 1.000000     C
    C   1.0     0.724900     0.033575     0.434937  Biso 1.000000     C
    C   1.0     0.724894     0.533585     0.434938  Biso 1.000000     C
    C   1.0     0.168564     0.014037     0.491110  Biso 1.000000     C
    C   1.0     0.168558     0.514045     0.491109  Biso 1.000000     C
    C   1.0     0.668564     0.014039     0.491112  Biso 1.000000     C
    C   1.0     0.668560     0.514044     0.491109  Biso 1.000000     C
    C   1.0     0.306461     0.019341     0.444278  Biso 1.000000     C
    C   1.0     0.306455     0.519349     0.444277  Biso 1.000000     C
    C   1.0     0.806461     0.019344     0.444279  Biso 1.000000     C
    C   1.0     0.806457     0.519349     0.444277  Biso 1.000000     C
    C   1.0     0.113905     0.408584     0.250717  Biso 1.000000     C
    C   1.0     0.113899     0.908593     0.250719  Biso 1.000000     C
    C   1.0     0.613908     0.408584     0.250715  Biso 1.000000     C
    C   1.0     0.613900     0.908593     0.250719  Biso 1.000000     C
    C   1.0     0.369003     0.180997     0.365190  Biso 1.000000     C
    C   1.0     0.368997     0.681006     0.365191  Biso 1.000000     C
    C   1.0     0.869004     0.180999     0.365189  Biso 1.000000     C
    C   1.0     0.868999     0.681006     0.365190  Biso 1.000000     C
    C   1.0     0.307673     0.216553     0.434904  Biso 1.000000     C
    C   1.0     0.307667     0.716561     0.434904  Biso 1.000000     C
    C   1.0     0.807675     0.216553     0.434904  Biso 1.000000     C
    C   1.0     0.807669     0.716562     0.434903  Biso 1.000000     C
    C   1.0     0.335831     0.236096     0.491197  Biso 1.000000     C
    C   1.0     0.335825     0.736104     0.491198  Biso 1.000000     C
    C   1.0     0.835832     0.236098     0.491196  Biso 1.000000     C
    C   1.0     0.835827     0.736104     0.491197  Biso 1.000000     C
    C   1.0     0.221493     0.230656     0.444162  Biso 1.000000     C
    C   1.0     0.221487     0.730664     0.444162  Biso 1.000000     C
    C   1.0     0.721494     0.230659     0.444160  Biso 1.000000     C
    C   1.0     0.721489     0.730665     0.444161  Biso 1.000000     C
    C   1.0     0.010639     0.341587     0.250708  Biso 1.000000     C
    C   1.0     0.010634     0.841595     0.250710  Biso 1.000000     C
    C   1.0     0.510642     0.341587     0.250705  Biso 1.000000     C
    C   1.0     0.510635     0.841596     0.250709  Biso 1.000000     C
    C   1.0     0.268154     0.430770     0.864989  Biso 1.000000     C
    C   1.0     0.268150     0.930777     0.864990  Biso 1.000000     C
    C   1.0     0.768156     0.430769     0.864990  Biso 1.000000     C
    C   1.0     0.768150     0.930778     0.864989  Biso 1.000000     C
    C   1.0     0.258728     0.466418     0.934817  Biso 1.000000     C
    C   1.0     0.258723     0.966426     0.934817  Biso 1.000000     C
    C   1.0     0.758730     0.466417     0.934818  Biso 1.000000     C
    C   1.0     0.758724     0.966427     0.934816  Biso 1.000000     C
    C   1.0     0.182781     0.485788     0.990768  Biso 1.000000     C
    C   1.0     0.182776     0.985796     0.990769  Biso 1.000000     C
    C   1.0     0.682782     0.485788     0.990768  Biso 1.000000     C
    C   1.0     0.682777     0.985796     0.990769  Biso 1.000000     C
    C   1.0     0.325873     0.480825     0.944481  Biso 1.000000     C
    C   1.0     0.325868     0.980833     0.944482  Biso 1.000000     C
    C   1.0     0.825875     0.480825     0.944481  Biso 1.000000     C
    C   1.0     0.825870     0.980833     0.944481  Biso 1.000000     C
    C   1.0     0.022369     0.092015     0.750916  Biso 1.000000     C
    C   1.0     0.022363     0.592023     0.750915  Biso 1.000000     C
    C   1.0     0.522370     0.092015     0.750916  Biso 1.000000     C
    C   1.0     0.522365     0.592023     0.750915  Biso 1.000000     C
    C   1.0     0.049512     0.319158     0.865044  Biso 1.000000     C
    C   1.0     0.049507     0.819166     0.865044  Biso 1.000000     C
    C   1.0     0.549513     0.319158     0.865045  Biso 1.000000     C
    C   1.0     0.549508     0.819167     0.865045  Biso 1.000000     C
    C   1.0     0.023970     0.283539     0.934842  Biso 1.000000     C
    C   1.0     0.023964     0.783548     0.934842  Biso 1.000000     C
    C   1.0     0.523972     0.283539     0.934842  Biso 1.000000     C
    C   1.0     0.523967     0.783547     0.934841  Biso 1.000000     C
    C   1.0     0.071881     0.264127     0.990889  Biso 1.000000     C
    C   1.0     0.071876     0.764135     0.990889  Biso 1.000000     C
    C   1.0     0.571882     0.264128     0.990890  Biso 1.000000     C
    C   1.0     0.571876     0.764136     0.990890  Biso 1.000000     C
    C   1.0     0.451946     0.269228     0.944389  Biso 1.000000     C
    C   1.0     0.451940     0.769237     0.944389  Biso 1.000000     C
    C   1.0     0.951948     0.269228     0.944389  Biso 1.000000     C
    C   1.0     0.951943     0.769236     0.944388  Biso 1.000000     C
    C   1.0     0.352265     0.157830     0.750926  Biso 1.000000     C
    C   1.0     0.352259     0.657839     0.750926  Biso 1.000000     C
    C   1.0     0.852267     0.157831     0.750927  Biso 1.000000     C
    C   1.0     0.852261     0.657839     0.750925  Biso 1.000000     C
    C   1.0     0.301575     0.430756     0.634730  Biso 1.000000     C
    C   1.0     0.301569     0.930765     0.634731  Biso 1.000000     C
    C   1.0     0.801576     0.430756     0.634731  Biso 1.000000     C
    C   1.0     0.801571     0.930766     0.634731  Biso 1.000000     C
    C   1.0     0.275101     0.466432     0.565053  Biso 1.000000     C
    C   1.0     0.275096     0.966441     0.565053  Biso 1.000000     C
    C   1.0     0.775102     0.466433     0.565054  Biso 1.000000     C
    C   1.0     0.775098     0.966439     0.565052  Biso 1.000000     C
    C   1.0     0.331436     0.485970     0.508881  Biso 1.000000     C
    C   1.0     0.331430     0.985980     0.508882  Biso 1.000000     C
    C   1.0     0.831438     0.485971     0.508881  Biso 1.000000     C
    C   1.0     0.831431     0.985982     0.508882  Biso 1.000000     C
    C   1.0     0.193539     0.480666     0.555713  Biso 1.000000     C
    C   1.0     0.193533     0.980675     0.555714  Biso 1.000000     C
    C   1.0     0.693541     0.480666     0.555713  Biso 1.000000     C
    C   1.0     0.693534     0.980677     0.555715  Biso 1.000000     C
    C   1.0     0.386095     0.091424     0.749274  Biso 1.000000     C
    C   1.0     0.386089     0.591432     0.749273  Biso 1.000000     C
    C   1.0     0.886097     0.091424     0.749273  Biso 1.000000     C
    C   1.0     0.886091     0.591432     0.749272  Biso 1.000000     C
    C   1.0     0.130997     0.319010     0.634801  Biso 1.000000     C
    C   1.0     0.130991     0.819019     0.634801  Biso 1.000000     C
    C   1.0     0.630999     0.319010     0.634801  Biso 1.000000     C
    C   1.0     0.630993     0.819018     0.634801  Biso 1.000000     C
    C   1.0     0.192326     0.283455     0.565087  Biso 1.000000     C
    C   1.0     0.192320     0.783464     0.565087  Biso 1.000000     C
    C   1.0     0.692328     0.283454     0.565088  Biso 1.000000     C
    C   1.0     0.692322     0.783463     0.565087  Biso 1.000000     C
    C   1.0     0.164169     0.263910     0.508795  Biso 1.000000     C
    C   1.0     0.164163     0.763920     0.508794  Biso 1.000000     C
    C   1.0     0.664170     0.263912     0.508794  Biso 1.000000     C
    C   1.0     0.664165     0.763919     0.508794  Biso 1.000000     C
    C   1.0     0.278507     0.269350     0.555830  Biso 1.000000     C
    C   1.0     0.278501     0.769359     0.555830  Biso 1.000000     C
    C   1.0     0.778508     0.269351     0.555830  Biso 1.000000     C
    C   1.0     0.778503     0.769359     0.555830  Biso 1.000000     C
    C   1.0     0.489360     0.158421     0.749283  Biso 1.000000     C
    C   1.0     0.489355     0.658430     0.749282  Biso 1.000000     C
    C   1.0     0.989362     0.158421     0.749283  Biso 1.000000     C
    C   1.0     0.989356     0.658430     0.749282  Biso 1.000000     C
    C   1.0     0.492925     0.013149     0.250041  Biso 1.000000     C
    C   1.0     0.492923     0.513158     0.250038  Biso 1.000000     C
    C   1.0     0.992929     0.013149     0.250039  Biso 1.000000     C
    C   1.0     0.992922     0.513158     0.250040  Biso 1.000000     C
    C   1.0     0.028875     0.441819     0.249946  Biso 1.000000     C
    C   1.0     0.028871     0.941828     0.249944  Biso 1.000000     C
    C   1.0     0.528877     0.441819     0.249948  Biso 1.000000     C
    C   1.0     0.528871     0.941828     0.249945  Biso 1.000000     C
    C   1.0     0.131960     0.237015     0.249993  Biso 1.000000     C
    C   1.0     0.131955     0.737023     0.249995  Biso 1.000000     C
    C   1.0     0.631961     0.237015     0.249991  Biso 1.000000     C
    C   1.0     0.631956     0.737023     0.249993  Biso 1.000000     C
    C   1.0     0.096055     0.308352     0.249926  Biso 1.000000     C
    C   1.0     0.096051     0.808361     0.249926  Biso 1.000000     C
    C   1.0     0.596057     0.308352     0.249928  Biso 1.000000     C
    C   1.0     0.596051     0.808361     0.249925  Biso 1.000000     C
    C   1.0     0.007073     0.486859     0.749951  Biso 1.000000     C
    C   1.0     0.007068     0.986867     0.749950  Biso 1.000000     C
    C   1.0     0.507076     0.486859     0.749950  Biso 1.000000     C
    C   1.0     0.507069     0.986867     0.749951  Biso 1.000000     C
    C   1.0     0.471124     0.058189     0.750046  Biso 1.000000     C
    C   1.0     0.471118     0.558197     0.750046  Biso 1.000000     C
    C   1.0     0.971126     0.058189     0.750045  Biso 1.000000     C
    C   1.0     0.971119     0.558197     0.750046  Biso 1.000000     C
    C   1.0     0.368039     0.262993     0.749997  Biso 1.000000     C
    C   1.0     0.368033     0.763002     0.749997  Biso 1.000000     C
    C   1.0     0.868041     0.262993     0.749999  Biso 1.000000     C
    C   1.0     0.868035     0.763002     0.749996  Biso 1.000000     C
    C   1.0     0.403944     0.191656     0.750065  Biso 1.000000     C
    C   1.0     0.403938     0.691664     0.750066  Biso 1.000000     C
    C   1.0     0.903946     0.191656     0.750066  Biso 1.000000     C
    C   1.0     0.903939     0.691664     0.750066  Biso 1.000000     C
    O   1.0     0.293010     0.083386     0.140635  Biso 1.000000     O
    O   1.0     0.293004     0.583394     0.140635  Biso 1.000000     O
    O   1.0     0.793011     0.083386     0.140634  Biso 1.000000     O
    O   1.0     0.793006     0.583393     0.140635  Biso 1.000000     O
    O   1.0     0.163047     0.083388     0.185593  Biso 1.000000     O
    O   1.0     0.163041     0.583397     0.185592  Biso 1.000000     O
    O   1.0     0.663049     0.083389     0.185592  Biso 1.000000     O
    O   1.0     0.663043     0.583396     0.185593  Biso 1.000000     O
    O   1.0     0.424404     0.041108     0.228307  Biso 1.000000     O
    O   1.0     0.424396     0.541115     0.228312  Biso 1.000000     O
    O   1.0     0.924405     0.041108     0.228309  Biso 1.000000     O
    O   1.0     0.924399     0.541116     0.228308  Biso 1.000000     O
    O   1.0     0.386478     0.166755     0.140540  Biso 1.000000     O
    O   1.0     0.386474     0.666762     0.140540  Biso 1.000000     O
    O   1.0     0.886480     0.166755     0.140540  Biso 1.000000     O
    O   1.0     0.886473     0.666764     0.140540  Biso 1.000000     O
    O   1.0     0.494016     0.166653     0.185567  Biso 1.000000     O
    O   1.0     0.494010     0.666662     0.185567  Biso 1.000000     O
    O   1.0     0.994016     0.166654     0.185568  Biso 1.000000     O
    O   1.0     0.994010     0.666663     0.185568  Biso 1.000000     O
    O   1.0     0.211324     0.209051     0.228285  Biso 1.000000     O
    O   1.0     0.211319     0.709059     0.228283  Biso 1.000000     O
    O   1.0     0.711326     0.209052     0.228288  Biso 1.000000     O
    O   1.0     0.711320     0.709059     0.228284  Biso 1.000000     O
    O   1.0     0.123264     0.082974     0.359663  Biso 1.000000     O
    O   1.0     0.123258     0.582982     0.359663  Biso 1.000000     O
    O   1.0     0.623266     0.082971     0.359662  Biso 1.000000     O
    O   1.0     0.623259     0.582984     0.359664  Biso 1.000000     O
    O   1.0     0.252726     0.083910     0.314725  Biso 1.000000     O
    O   1.0     0.252720     0.583919     0.314725  Biso 1.000000     O
    O   1.0     0.752728     0.083909     0.314723  Biso 1.000000     O
    O   1.0     0.752721     0.583920     0.314726  Biso 1.000000     O
    O   1.0     0.032964     0.041644     0.271862  Biso 1.000000     O
    O   1.0     0.032957     0.541654     0.271862  Biso 1.000000     O
    O   1.0     0.532966     0.041644     0.271861  Biso 1.000000     O
    O   1.0     0.532956     0.541655     0.271866  Biso 1.000000     O
    O   1.0     0.446934     0.167347     0.359622  Biso 1.000000     O
    O   1.0     0.446928     0.667356     0.359622  Biso 1.000000     O
    O   1.0     0.946936     0.167345     0.359624  Biso 1.000000     O
    O   1.0     0.946930     0.667356     0.359622  Biso 1.000000     O
    O   1.0     0.340003     0.166351     0.314569  Biso 1.000000     O
    O   1.0     0.339997     0.666359     0.314569  Biso 1.000000     O
    O   1.0     0.840004     0.166349     0.314570  Biso 1.000000     O
    O   1.0     0.839999     0.666358     0.314569  Biso 1.000000     O
    O   1.0     0.081026     0.208524     0.271738  Biso 1.000000     O
    O   1.0     0.081020     0.708533     0.271735  Biso 1.000000     O
    O   1.0     0.581028     0.208523     0.271741  Biso 1.000000     O
    O   1.0     0.581022     0.708533     0.271737  Biso 1.000000     O
    O   1.0     0.206989     0.416623     0.859356  Biso 1.000000     O
    O   1.0     0.206984     0.916632     0.859356  Biso 1.000000     O
    O   1.0     0.706991     0.416623     0.859356  Biso 1.000000     O
    O   1.0     0.706985     0.916631     0.859356  Biso 1.000000     O
    O   1.0     0.336952     0.416620     0.814398  Biso 1.000000     O
    O   1.0     0.336947     0.916629     0.814398  Biso 1.000000     O
    O   1.0     0.836954     0.416621     0.814398  Biso 1.000000     O
    O   1.0     0.836948     0.916629     0.814397  Biso 1.000000     O
    O   1.0     0.075596     0.458900     0.771683  Biso 1.000000     O
    O   1.0     0.075589     0.958909     0.771684  Biso 1.000000     O
    O   1.0     0.575597     0.458900     0.771684  Biso 1.000000     O
    O   1.0     0.575593     0.958909     0.771682  Biso 1.000000     O
    O   1.0     0.113523     0.333251     0.859450  Biso 1.000000     O
    O   1.0     0.113516     0.833261     0.859451  Biso 1.000000     O
    O   1.0     0.613525     0.333251     0.859450  Biso 1.000000     O
    O   1.0     0.613518     0.833260     0.859450  Biso 1.000000     O
    O   1.0     0.005986     0.333353     0.814422  Biso 1.000000     O
    O   1.0     0.005979     0.833362     0.814423  Biso 1.000000     O
    O   1.0     0.505988     0.333352     0.814422  Biso 1.000000     O
    O   1.0     0.505982     0.833361     0.814422  Biso 1.000000     O
    O   1.0     0.288675     0.290957     0.771707  Biso 1.000000     O
    O   1.0     0.288669     0.790966     0.771707  Biso 1.000000     O
    O   1.0     0.788677     0.290957     0.771707  Biso 1.000000     O
    O   1.0     0.788671     0.790966     0.771709  Biso 1.000000     O
    O   1.0     0.376735     0.417035     0.640329  Biso 1.000000     O
    O   1.0     0.376730     0.917042     0.640328  Biso 1.000000     O
    O   1.0     0.876737     0.417035     0.640328  Biso 1.000000     O
    O   1.0     0.876732     0.917041     0.640327  Biso 1.000000     O
    O   1.0     0.247273     0.416098     0.685267  Biso 1.000000     O
    O   1.0     0.247268     0.916106     0.685267  Biso 1.000000     O
    O   1.0     0.747275     0.416097     0.685266  Biso 1.000000     O
    O   1.0     0.747271     0.916103     0.685264  Biso 1.000000     O
    O   1.0     0.467035     0.458363     0.728130  Biso 1.000000     O
    O   1.0     0.467031     0.958371     0.728129  Biso 1.000000     O
    O   1.0     0.967037     0.458363     0.728130  Biso 1.000000     O
    O   1.0     0.967032     0.958371     0.728130  Biso 1.000000     O
    O   1.0     0.053065     0.332662     0.640368  Biso 1.000000     O
    O   1.0     0.053060     0.832669     0.640369  Biso 1.000000     O
    O   1.0     0.553067     0.332661     0.640368  Biso 1.000000     O
    O   1.0     0.553061     0.832670     0.640368  Biso 1.000000     O
    O   1.0     0.159997     0.333658     0.685421  Biso 1.000000     O
    O   1.0     0.159991     0.833667     0.685421  Biso 1.000000     O
    O   1.0     0.659999     0.333657     0.685422  Biso 1.000000     O
    O   1.0     0.659993     0.833666     0.685421  Biso 1.000000     O
    O   1.0     0.418973     0.291483     0.728254  Biso 1.000000     O
    O   1.0     0.418968     0.791492     0.728254  Biso 1.000000     O
    O   1.0     0.918975     0.291484     0.728253  Biso 1.000000     O
    O   1.0     0.918970     0.791492     0.728255  Biso 1.000000     O
   Sc   1.0     0.317921     0.125093     0.228127  Biso 1.000000    Sc
   Sc   1.0     0.317915     0.625100     0.228127  Biso 1.000000    Sc
   Sc   1.0     0.817922     0.125092     0.228127  Biso 1.000000    Sc
   Sc   1.0     0.817917     0.625101     0.228127  Biso 1.000000    Sc
   Sc   1.0     0.056931     0.125080     0.272126  Biso 1.000000    Sc
   Sc   1.0     0.056925     0.625089     0.272126  Biso 1.000000    Sc
   Sc   1.0     0.556933     0.125080     0.272126  Biso 1.000000    Sc
   Sc   1.0     0.556926     0.625090     0.272127  Biso 1.000000    Sc
   Sc   1.0     0.182079     0.374916     0.771864  Biso 1.000000    Sc
   Sc   1.0     0.182073     0.874925     0.771864  Biso 1.000000    Sc
   Sc   1.0     0.682080     0.374915     0.771864  Biso 1.000000    Sc
   Sc   1.0     0.682075     0.874924     0.771864  Biso 1.000000    Sc
   Sc   1.0     0.443069     0.374927     0.727865  Biso 1.000000    Sc
   Sc   1.0     0.443064     0.874936     0.727865  Biso 1.000000    Sc
   Sc   1.0     0.943070     0.374928     0.727865  Biso 1.000000    Sc
   Sc   1.0     0.943065     0.874936     0.727865  Biso 1.000000    Sc
