#======================================================================

# CRYSTAL DATA

#----------------------------------------------------------------------

data_VESTA_phase_1


_pd_phase_name                         MOF
_cell_length_a                         15.15400
_cell_length_b                         14.33100
_cell_length_c                         17.72300
_cell_angle_alpha                      90.00200
_cell_angle_beta                       89.98700
_cell_angle_gamma                      90.01900
_symmetry_space_group_name_H-M         "P 1"
_symmetry_Int_Tables_number            1

loop_
_symmetry_equiv_pos_as_xyz
   "x, y, z"

loop_
   _atom_site_label
   _atom_site_occupancy
   _atom_site_fract_x
   _atom_site_fract_y
   _atom_site_fract_z
   _atom_site_adp_type
   _atom_site_B_iso_or_equiv
   _atom_site_type_symbol
    H   1.0     0.719523     0.868001     0.795936  Biso 1.000000     H
    H   1.0     0.802670     0.776131     0.889850  Biso 1.000000     H
    H   1.0     0.042488     0.872511     0.781586  Biso 1.000000     H
    H   1.0     0.948134     0.960043     0.691370  Biso 1.000000     H
    H   1.0     0.884929     0.663731     0.928147  Biso 1.000000     H
    H   1.0     0.977197     0.577632     0.018667  Biso 1.000000     H
    H   1.0     0.190219     0.770517     0.983819  Biso 1.000000     H
    H   1.0     0.098609     0.859137     0.892599  Biso 1.000000     H
    H   1.0     0.780495     0.131852     0.795910  Biso 1.000000     H
    H   1.0     0.697354     0.223794     0.889825  Biso 1.000000     H
    H   1.0     0.457565     0.127505     0.781603  Biso 1.000000     H
    H   1.0     0.551880     0.039896     0.691386  Biso 1.000000     H
    H   1.0     0.615096     0.336235     0.928146  Biso 1.000000     H
    H   1.0     0.522784     0.422356     0.018672  Biso 1.000000     H
    H   1.0     0.309792     0.229523     0.983840  Biso 1.000000     H
    H   1.0     0.401425     0.140872     0.892616  Biso 1.000000     H
    H   1.0     0.219602     0.631873     0.295868  Biso 1.000000     H
    H   1.0     0.302844     0.723685     0.389804  Biso 1.000000     H
    H   1.0     0.542528     0.627412     0.281409  Biso 1.000000     H
    H   1.0     0.448104     0.539990     0.191131  Biso 1.000000     H
    H   1.0     0.385456     0.836233     0.428012  Biso 1.000000     H
    H   1.0     0.477933     0.921924     0.518780  Biso 1.000000     H
    H   1.0     0.690205     0.728304     0.484065  Biso 1.000000     H
    H   1.0     0.598406     0.640103     0.392647  Biso 1.000000     H
    H   1.0     0.280406     0.368310     0.295860  Biso 1.000000     H
    H   1.0     0.197173     0.276436     0.389797  Biso 1.000000     H
    H   1.0     0.957453     0.372556     0.281423  Biso 1.000000     H
    H   1.0     0.051897     0.460039     0.191142  Biso 1.000000     H
    H   1.0     0.114587     0.163835     0.428013  Biso 1.000000     H
    H   1.0     0.022098     0.078095     0.518774  Biso 1.000000     H
    H   1.0     0.809734     0.271617     0.484076  Biso 1.000000     H
    H   1.0     0.901540     0.359862     0.392658  Biso 1.000000     H
    H   1.0     0.780396     0.368137     0.704141  Biso 1.000000     H
    H   1.0     0.697152     0.276327     0.610203  Biso 1.000000     H
    H   1.0     0.457469     0.372593     0.718604  Biso 1.000000     H
    H   1.0     0.551895     0.460010     0.808884  Biso 1.000000     H
    H   1.0     0.614539     0.163768     0.572004  Biso 1.000000     H
    H   1.0     0.522070     0.078084     0.481227  Biso 1.000000     H
    H   1.0     0.309796     0.271702     0.515939  Biso 1.000000     H
    H   1.0     0.401586     0.359897     0.607365  Biso 1.000000     H
    H   1.0     0.719599     0.631692     0.704148  Biso 1.000000     H
    H   1.0     0.802830     0.723566     0.610210  Biso 1.000000     H
    H   1.0     0.042553     0.627441     0.718578  Biso 1.000000     H
    H   1.0     0.948111     0.539956     0.808859  Biso 1.000000     H
    H   1.0     0.885411     0.836179     0.572008  Biso 1.000000     H
    H   1.0     0.977893     0.921922     0.481242  Biso 1.000000     H
    H   1.0     0.190269     0.728418     0.515941  Biso 1.000000     H
    H   1.0     0.098474     0.640170     0.607365  Biso 1.000000     H
    H   1.0     0.280479     0.132005     0.204068  Biso 1.000000     H
    H   1.0     0.197330     0.223873     0.110153  Biso 1.000000     H
    H   1.0     0.957514     0.127492     0.218419  Biso 1.000000     H
    H   1.0     0.051870     0.039964     0.308637  Biso 1.000000     H
    H   1.0     0.115069     0.336271     0.071856  Biso 1.000000     H
    H   1.0     0.022796     0.422368     0.981337  Biso 1.000000     H
    H   1.0     0.809781     0.229475     0.016185  Biso 1.000000     H
    H   1.0     0.901395     0.140857     0.107404  Biso 1.000000     H
    H   1.0     0.219508     0.868153     0.204101  Biso 1.000000     H
    H   1.0     0.302648     0.776205     0.110188  Biso 1.000000     H
    H   1.0     0.542438     0.872497     0.218408  Biso 1.000000     H
    H   1.0     0.448123     0.960112     0.308622  Biso 1.000000     H
    H   1.0     0.384902     0.663767     0.071866  Biso 1.000000     H
    H   1.0     0.477212     0.577642     0.981342  Biso 1.000000     H
    H   1.0     0.690209     0.770471     0.016170  Biso 1.000000     H
    H   1.0     0.598577     0.859125     0.107394  Biso 1.000000     H
    C   1.0     0.791511     0.867772     0.795041  Biso 1.000000     C
    C   1.0     0.838706     0.816909     0.848026  Biso 1.000000     C
    C   1.0     0.931590     0.818520     0.846386  Biso 1.000000     C
    C   1.0     0.971046     0.870868     0.788316  Biso 1.000000     C
    C   1.0     0.919227     0.919605     0.737253  Biso 1.000000     C
    C   1.0     0.985174     0.767532     0.902387  Biso 1.000000     C
    C   1.0     0.951423     0.688621     0.939860  Biso 1.000000     C
    C   1.0     0.003231     0.639751     0.991238  Biso 1.000000     C
    C   1.0     0.089604     0.668686     0.007205  Biso 1.000000     C
    C   1.0     0.123184     0.748144     0.970957  Biso 1.000000     C
    C   1.0     0.071770     0.796765     0.919303  Biso 1.000000     C
    C   1.0     0.146290     0.614211     0.060646  Biso 1.000000     C
    C   1.0     0.708507     0.132117     0.795027  Biso 1.000000     C
    C   1.0     0.661316     0.183021     0.848011  Biso 1.000000     C
    C   1.0     0.568432     0.181448     0.846386  Biso 1.000000     C
    C   1.0     0.528974     0.129110     0.788324  Biso 1.000000     C
    C   1.0     0.580787     0.080330     0.737261  Biso 1.000000     C
    C   1.0     0.514841     0.232457     0.902393  Biso 1.000000     C
    C   1.0     0.548591     0.311363     0.939864  Biso 1.000000     C
    C   1.0     0.496800     0.360249     0.991246  Biso 1.000000     C
    C   1.0     0.410397     0.331320     0.007219  Biso 1.000000     C
    C   1.0     0.376837     0.251877     0.970972  Biso 1.000000     C
    C   1.0     0.428264     0.203242     0.919316  Biso 1.000000     C
    C   1.0     0.353687     0.385798     0.060664  Biso 1.000000     C
    C   1.0     0.291590     0.632138     0.294932  Biso 1.000000     C
    C   1.0     0.338835     0.682898     0.347973  Biso 1.000000     C
    C   1.0     0.431710     0.681336     0.346259  Biso 1.000000     C
    C   1.0     0.471122     0.629003     0.288178  Biso 1.000000     C
    C   1.0     0.419255     0.580376     0.237059  Biso 1.000000     C
    C   1.0     0.485360     0.732107     0.402363  Biso 1.000000     C
    C   1.0     0.451861     0.811158     0.439785  Biso 1.000000     C
    C   1.0     0.503703     0.859727     0.491332  Biso 1.000000     C
    C   1.0     0.589936     0.830419     0.507404  Biso 1.000000     C
    C   1.0     0.623268     0.750897     0.471143  Biso 1.000000     C
    C   1.0     0.571794     0.702577     0.419332  Biso 1.000000     C
    C   1.0     0.646782     0.884477     0.561027  Biso 1.000000     C
    C   1.0     0.208418     0.367995     0.294931  Biso 1.000000     C
    C   1.0     0.161179     0.317201     0.347970  Biso 1.000000     C
    C   1.0     0.068304     0.318707     0.346263  Biso 1.000000     C
    C   1.0     0.028888     0.371012     0.288186  Biso 1.000000     C
    C   1.0     0.080748     0.419675     0.237068  Biso 1.000000     C
    C   1.0     0.014652     0.267910     0.402369  Biso 1.000000     C
    C   1.0     0.048164     0.188875     0.439786  Biso 1.000000     C
    C   1.0     0.996286     0.140281     0.491331  Biso 1.000000     C
    C   1.0     0.910034     0.169555     0.507408  Biso 1.000000     C
    C   1.0     0.876687     0.249059     0.471150  Biso 1.000000     C
    C   1.0     0.928165     0.297400     0.419339  Biso 1.000000     C
    C   1.0     0.853173     0.115486     0.561030  Biso 1.000000     C
    C   1.0     0.708407     0.367892     0.705063  Biso 1.000000     C
    C   1.0     0.661161     0.317086     0.652052  Biso 1.000000     C
    C   1.0     0.568285     0.318695     0.653737  Biso 1.000000     C
    C   1.0     0.528877     0.370978     0.711850  Biso 1.000000     C
    C   1.0     0.580743     0.419651     0.762940  Biso 1.000000     C
    C   1.0     0.514629     0.267878     0.597664  Biso 1.000000     C
    C   1.0     0.548144     0.188858     0.560212  Biso 1.000000     C
    C   1.0     0.496286     0.140263     0.508691  Biso 1.000000     C
    C   1.0     0.410064     0.169590     0.492595  Biso 1.000000     C
    C   1.0     0.376724     0.249093     0.528879  Biso 1.000000     C
    C   1.0     0.428212     0.297439     0.580665  Biso 1.000000     C
    C   1.0     0.353215     0.115516     0.438983  Biso 1.000000     C
    C   1.0     0.791587     0.631986     0.705064  Biso 1.000000     C
    C   1.0     0.838825     0.682824     0.652051  Biso 1.000000     C
    C   1.0     0.931701     0.681278     0.653733  Biso 1.000000     C
    C   1.0     0.971116     0.629007     0.711831  Biso 1.000000     C
    C   1.0     0.919258     0.580302     0.762924  Biso 1.000000     C
    C   1.0     0.985357     0.732122     0.597659  Biso 1.000000     C
    C   1.0     0.951827     0.811131     0.560219  Biso 1.000000     C
    C   1.0     0.003718     0.859750     0.508697  Biso 1.000000     C
    C   1.0     0.089959     0.830459     0.492600  Biso 1.000000     C
    C   1.0     0.123321     0.750980     0.528882  Biso 1.000000     C
    C   1.0     0.071833     0.702615     0.580670  Biso 1.000000     C
    C   1.0     0.146818     0.884522     0.438975  Biso 1.000000     C
    C   1.0     0.208491     0.132238     0.204966  Biso 1.000000     C
    C   1.0     0.161296     0.183091     0.151975  Biso 1.000000     C
    C   1.0     0.068412     0.181487     0.153621  Biso 1.000000     C
    C   1.0     0.028956     0.129132     0.211687  Biso 1.000000     C
    C   1.0     0.080776     0.080405     0.262756  Biso 1.000000     C
    C   1.0     0.014828     0.232464     0.097614  Biso 1.000000     C
    C   1.0     0.048574     0.311381     0.060146  Biso 1.000000     C
    C   1.0     0.996766     0.360245     0.008764  Biso 1.000000     C
    C   1.0     0.910393     0.331309     0.992801  Biso 1.000000     C
    C   1.0     0.876816     0.251847     0.029044  Biso 1.000000     C
    C   1.0     0.928230     0.203233     0.080703  Biso 1.000000     C
    C   1.0     0.853705     0.385779     0.939358  Biso 1.000000     C
    C   1.0     0.291496     0.867883     0.204986  Biso 1.000000     C
    C   1.0     0.338686     0.816984     0.151998  Biso 1.000000     C
    C   1.0     0.431570     0.818549     0.153629  Biso 1.000000     C
    C   1.0     0.471029     0.870897     0.211684  Biso 1.000000     C
    C   1.0     0.419216     0.919672     0.262750  Biso 1.000000     C
    C   1.0     0.485159     0.767545     0.097617  Biso 1.000000     C
    C   1.0     0.451409     0.688635     0.060152  Biso 1.000000     C
    C   1.0     0.503196     0.639751     0.008765  Biso 1.000000     C
    C   1.0     0.589601     0.668674     0.992795  Biso 1.000000     C
    C   1.0     0.623163     0.748119     0.029036  Biso 1.000000     C
    C   1.0     0.571739     0.796752     0.080697  Biso 1.000000     C
    C   1.0     0.646306     0.614190     0.939349  Biso 1.000000     C
    N   1.0     0.830206     0.919239     0.740449  Biso 1.000000     N
    N   1.0     0.669806     0.080651     0.740450  Biso 1.000000     N
    N   1.0     0.330238     0.580662     0.240336  Biso 1.000000     N
    N   1.0     0.169764     0.419446     0.240342  Biso 1.000000     N
    N   1.0     0.669761     0.419329     0.759683  Biso 1.000000     N
    N   1.0     0.830242     0.580565     0.759671  Biso 1.000000     N
    N   1.0     0.169796     0.080765     0.259555  Biso 1.000000     N
    N   1.0     0.330198     0.919358     0.259557  Biso 1.000000     N
    O   1.0     0.114674     0.539570     0.089662  Biso 1.000000     O
    O   1.0     0.224492     0.642416     0.074518  Biso 1.000000     O
    O   1.0     0.385304     0.460429     0.089695  Biso 1.000000     O
    O   1.0     0.275473     0.357607     0.074522  Biso 1.000000     O
    O   1.0     0.615146     0.958969     0.590339  Biso 1.000000     O
    O   1.0     0.724957     0.856205     0.574670  Biso 1.000000     O
    O   1.0     0.884815     0.040999     0.590336  Biso 1.000000     O
    O   1.0     0.774994     0.143748     0.574681  Biso 1.000000     O
    O   1.0     0.384849     0.041022     0.409672  Biso 1.000000     O
    O   1.0     0.275040     0.143787     0.425341  Biso 1.000000     O
    O   1.0     0.115176     0.959005     0.409663  Biso 1.000000     O
    O   1.0     0.224992     0.856247     0.425318  Biso 1.000000     O
    O   1.0     0.885315     0.460426     0.910347  Biso 1.000000     O
    O   1.0     0.775506     0.357567     0.925482  Biso 1.000000     O
    O   1.0     0.614686     0.539556     0.910328  Biso 1.000000     O
    O   1.0     0.724519     0.642379     0.925480  Biso 1.000000     O
   Cd   1.0     0.249999     0.500058     0.147381  Biso 1.000000    Cd
   Cd   1.0     0.750001    -0.000058     0.647504  Biso 1.000000    Cd
   Cd   1.0     0.249993     0.000084     0.352500  Biso 1.000000    Cd
   Cd   1.0     0.750001     0.499945     0.852628  Biso 1.000000    Cd
