#======================================================================

# CRYSTAL DATA

#----------------------------------------------------------------------

data_VESTA_phase_1


_pd_phase_name                         MOF
_cell_length_a                         12.16000
_cell_length_b                         12.16200
_cell_length_c                         12.71100
_cell_angle_alpha                      102.47000
_cell_angle_beta                       102.44100
_cell_angle_gamma                      103.40900
_symmetry_space_group_name_H-M         "P 1"
_symmetry_Int_Tables_number            1

loop_
_symmetry_equiv_pos_as_xyz
   "x, y, z"

loop_
   _atom_site_label
   _atom_site_occupancy
   _atom_site_fract_x
   _atom_site_fract_y
   _atom_site_fract_z
   _atom_site_adp_type
   _atom_site_B_iso_or_equiv
   _atom_site_type_symbol
    H   1.0     0.047334     0.095114    -0.009986  Biso 1.000000     H
    H   1.0     0.198137     0.024363     0.100296  Biso 1.000000     H
    H   1.0     0.289939     0.339686     0.372538  Biso 1.000000     H
    H   1.0     0.134045     0.406192     0.266022  Biso 1.000000     H
    H   1.0     0.604346     0.173828     0.165759  Biso 1.000000     H
    H   1.0     0.519490     0.000000     0.811450  Biso 1.000000     H
    H   1.0     0.902244     0.504656     0.889788  Biso 1.000000     H
    H   1.0     0.763072     0.475130     0.854907  Biso 1.000000     H
    H   1.0     0.904681     0.953306     0.510281  Biso 1.000000     H
    H   1.0     0.975649     0.802461     0.400181  Biso 1.000000     H
    H   1.0     0.660524     0.710355     0.127730  Biso 1.000000     H
    H   1.0     0.593952     0.866429     0.233941  Biso 1.000000     H
    H   1.0     0.825877     0.395524     0.334605  Biso 1.000000     H
    H   1.0    -0.009494     0.481167     0.688747  Biso 1.000000     H
    H   1.0     0.495697     0.097649     0.610975  Biso 1.000000     H
    H   1.0     0.524819     0.236788     0.646321  Biso 1.000000     H
    H   1.0     0.952707     0.904928     0.000000  Biso 1.000000     H
    H   1.0     0.801903     0.975680     0.899658  Biso 1.000000     H
    H   1.0     0.710096     0.660358     0.627414  Biso 1.000000     H
    H   1.0     0.865991     0.593850     0.733927  Biso 1.000000     H
    H   1.0     0.395682     0.826211     0.834192  Biso 1.000000     H
    H   1.0     0.480539    -0.009923     0.188502  Biso 1.000000     H
    H   1.0     0.097793     0.495385     0.110167  Biso 1.000000     H
    H   1.0     0.236966     0.524915     0.145051  Biso 1.000000     H
    H   1.0     0.095355     0.046741     0.489663  Biso 1.000000     H
    H   1.0     0.024384     0.197583     0.599765  Biso 1.000000     H
    H   1.0     0.339508     0.289689     0.872217  Biso 1.000000     H
    H   1.0     0.406082     0.133618     0.766003  Biso 1.000000     H
    H   1.0     0.174159     0.604520     0.665344  Biso 1.000000     H
    H   1.0     0.000000     0.518875     0.311202  Biso 1.000000     H
    H   1.0     0.504340     0.902402     0.388979  Biso 1.000000     H
    H   1.0     0.475220     0.763263     0.353638  Biso 1.000000     H
    C   1.0     0.983274     0.289422     0.054646  Biso 1.000000     C
    C   1.0     0.080273     0.254443     0.120366  Biso 1.000000     C
    C   1.0     0.099943     0.147347     0.074369  Biso 1.000000     C
    C   1.0     0.184243     0.108188     0.136063  Biso 1.000000     C
    C   1.0     0.252730     0.177131     0.244209  Biso 1.000000     C
    C   1.0     0.235836     0.285916     0.289056  Biso 1.000000     C
    C   1.0     0.149242     0.323692     0.228421  Biso 1.000000     C
    C   1.0     0.343293     0.133875     0.310302  Biso 1.000000     C
    C   1.0     0.642369     0.212959     0.971546  Biso 1.000000     C
    C   1.0     0.568523     0.103548     0.986857  Biso 1.000000     C
    C   1.0     0.558355     0.097488     0.093587  Biso 1.000000     C
    C   1.0     0.509821     0.000000     0.893624  Biso 1.000000     C
    C   1.0     0.710332     0.017210     0.445419  Biso 1.000000     C
    C   1.0     0.745473     0.920231     0.379786  Biso 1.000000     C
    C   1.0     0.852555     0.900638     0.425913  Biso 1.000000     C
    C   1.0     0.891818     0.816296     0.364348  Biso 1.000000     C
    C   1.0     0.822960     0.747675     0.256223  Biso 1.000000     C
    C   1.0     0.714213     0.764532     0.211213  Biso 1.000000     C
    C   1.0     0.676384     0.851218     0.271689  Biso 1.000000     C
    C   1.0     0.866178     0.656891     0.190365  Biso 1.000000     C
    C   1.0     0.787170     0.358142     0.529123  Biso 1.000000     C
    C   1.0     0.896555     0.431729     0.513455  Biso 1.000000     C
    C   1.0     0.902355     0.441598     0.406614  Biso 1.000000     C
    C   1.0    -0.004919     0.490567     0.606455  Biso 1.000000     C
    C   1.0     0.016762     0.710617     0.945305  Biso 1.000000     C
    C   1.0     0.919766     0.745599     0.879583  Biso 1.000000     C
    C   1.0     0.900097     0.852694     0.925582  Biso 1.000000     C
    C   1.0     0.815800     0.891857     0.863889  Biso 1.000000     C
    C   1.0     0.747302     0.822910     0.755748  Biso 1.000000     C
    C   1.0     0.764203     0.714130     0.710893  Biso 1.000000     C
    C   1.0     0.850793     0.676350     0.771528  Biso 1.000000     C
    C   1.0     0.656749     0.866172     0.689648  Biso 1.000000     C
    C   1.0     0.357663     0.787077     0.028404  Biso 1.000000     C
    C   1.0     0.431504     0.896491     0.013094  Biso 1.000000     C
    C   1.0     0.441674     0.902551     0.906364  Biso 1.000000     C
    C   1.0     0.490208    -0.005166     0.106328  Biso 1.000000     C
    C   1.0     0.289700     0.982831     0.554533  Biso 1.000000     C
    C   1.0     0.254567     0.079823     0.620155  Biso 1.000000     C
    C   1.0     0.147477     0.099405     0.574033  Biso 1.000000     C
    C   1.0     0.108215     0.183748     0.635597  Biso 1.000000     C
    C   1.0     0.177073     0.252368     0.743722  Biso 1.000000     C
    C   1.0     0.285820     0.235512     0.788732  Biso 1.000000     C
    C   1.0     0.323649     0.148825     0.728257  Biso 1.000000     C
    C   1.0     0.133852     0.343148     0.809583  Biso 1.000000     C
    C   1.0     0.212869     0.641896     0.470826  Biso 1.000000     C
    C   1.0     0.103479     0.568319     0.486496  Biso 1.000000     C
    C   1.0     0.097682     0.558443     0.593335  Biso 1.000000     C
    C   1.0     0.000000     0.509473     0.393494  Biso 1.000000     C
    O   1.0     0.910111     0.218293     0.968379  Biso 1.000000     O
    O   1.0     0.979737     0.397921     0.094046  Biso 1.000000     O
    O   1.0     0.329440     0.025243     0.293486  Biso 1.000000     O
    O   1.0     0.432819     0.215169     0.381576  Biso 1.000000     O
    O   1.0     0.706834     0.293293     0.062408  Biso 1.000000     O
    O   1.0     0.639310     0.221958     0.873814  Biso 1.000000     O
    O   1.0     0.826289     0.445847     0.888545  Biso 1.000000     O
    O   1.0     0.781317     0.090373     0.531756  Biso 1.000000     O
    O   1.0     0.601887     0.020762     0.405861  Biso 1.000000     O
    O   1.0     0.974797     0.670831     0.206855  Biso 1.000000     O
    O   1.0     0.784853     0.567022     0.119612  Biso 1.000000     O
    O   1.0     0.706565     0.293776     0.438443  Biso 1.000000     O
    O   1.0     0.778426     0.361150     0.626931  Biso 1.000000     O
    O   1.0     0.554412     0.173847     0.612595  Biso 1.000000     O
    O   1.0     0.089926     0.781746     0.031572  Biso 1.000000     O
    O   1.0     0.020300     0.602119     0.905905  Biso 1.000000     O
    O   1.0     0.670596     0.974804     0.706474  Biso 1.000000     O
    O   1.0     0.567215     0.784879     0.618382  Biso 1.000000     O
    O   1.0     0.293195     0.706746     0.937541  Biso 1.000000     O
    O   1.0     0.360721     0.778075     0.126135  Biso 1.000000     O
    O   1.0     0.173747     0.554195     0.111412  Biso 1.000000     O
    O   1.0     0.218721     0.909672     0.468191  Biso 1.000000     O
    O   1.0     0.398152     0.979292     0.594085  Biso 1.000000     O
    O   1.0     0.025233     0.329206     0.793086  Biso 1.000000     O
    O   1.0     0.215176     0.433014     0.880341  Biso 1.000000     O
    O   1.0     0.293468     0.706276     0.561505  Biso 1.000000     O
    O   1.0     0.221610     0.638885     0.373017  Biso 1.000000     O
    O   1.0     0.445627     0.826205     0.387363  Biso 1.000000     O
   Zn   1.0     0.822828     0.426756     0.048684  Biso 1.000000    Zn
   Zn   1.0     0.573417     0.177754     0.452628  Biso 1.000000    Zn
   Zn   1.0     0.177207     0.573281     0.951272  Biso 1.000000    Zn
   Zn   1.0     0.426622     0.822300     0.547331  Biso 1.000000    Zn
   Ba   1.0     0.795604     0.204577     0.750234  Biso 1.000000    Ba
   Ba   1.0     0.204431     0.795465     0.249717  Biso 1.000000    Ba
