#======================================================================

# CRYSTAL DATA

#----------------------------------------------------------------------

data_VESTA_phase_1


_pd_phase_name                         MOF
_cell_length_a                         19.19600
_cell_length_b                         19.20300
_cell_length_c                         21.36900
_cell_angle_alpha                      89.96100
_cell_angle_beta                       89.94700
_cell_angle_gamma                      119.63100
_symmetry_space_group_name_H-M         "P 1"
_symmetry_Int_Tables_number            1

loop_
_symmetry_equiv_pos_as_xyz
   "x, y, z"

loop_
   _atom_site_label
   _atom_site_occupancy
   _atom_site_fract_x
   _atom_site_fract_y
   _atom_site_fract_z
   _atom_site_adp_type
   _atom_site_B_iso_or_equiv
   _atom_site_type_symbol
    H   1.0     0.653878     0.229163     0.110278  Biso 1.000000     H
    H   1.0     0.805823     0.290330     0.272428  Biso 1.000000     H
    H   1.0     0.855094     0.466844     0.128367  Biso 1.000000     H
    H   1.0     0.946307     0.364787     0.278317  Biso 1.000000     H
    H   1.0     0.067604     0.472765     0.329793  Biso 1.000000     H
    H   1.0     0.021493     0.648678     0.263978  Biso 1.000000     H
    H   1.0     0.895912     0.547920     0.211449  Biso 1.000000     H
    H   1.0     0.635997     0.311583     0.923307  Biso 1.000000     H
    H   1.0     0.621860     0.206615     0.849341  Biso 1.000000     H
    H   1.0     0.693770     0.130657     0.868187  Biso 1.000000     H
    H   1.0     0.781396     0.161572     0.962023  Biso 1.000000     H
    H   1.0     0.796643     0.267210     0.036036  Biso 1.000000     H
    H   1.0     0.689709     0.499126     0.066028  Biso 1.000000     H
    H   1.0     0.559272     0.491558     0.089255  Biso 1.000000     H
    H   1.0     0.432232     0.361630     0.080884  Biso 1.000000     H
    H   1.0     0.436494     0.237853     0.052530  Biso 1.000000     H
    H   1.0     0.565820     0.244094     0.031318  Biso 1.000000     H
    H   1.0     0.738502     0.151475     0.105041  Biso 1.000000     H
    H   1.0     0.798460     0.072557     0.063701  Biso 1.000000     H
    H   1.0     0.811596     0.974765     0.132543  Biso 1.000000     H
    H   1.0     0.766850     0.958871     0.243669  Biso 1.000000     H
    H   1.0     0.709343     0.040518     0.285769  Biso 1.000000     H
    H   1.0     0.535070     0.184159     0.225017  Biso 1.000000     H
    H   1.0     0.405628     0.123558     0.170049  Biso 1.000000     H
    H   1.0     0.366395     0.007173     0.098248  Biso 1.000000     H
    H   1.0     0.460278     0.954032     0.081836  Biso 1.000000     H
    H   1.0     0.590892     0.016259     0.135298  Biso 1.000000     H
    H   1.0     0.576915     0.347810     0.443529  Biso 1.000000     H
    H   1.0     0.486013     0.195356     0.605550  Biso 1.000000     H
    H   1.0     0.613118     0.144996     0.461586  Biso 1.000000     H
    H   1.0     0.420778     0.056370     0.612196  Biso 1.000000     H
    H   1.0     0.406216     0.933806     0.663524  Biso 1.000000     H
    H   1.0     0.625639     0.974802     0.596425  Biso 1.000000     H
    H   1.0     0.651602     0.101373     0.543843  Biso 1.000000     H
    H   1.0     0.676401     0.364629     0.256326  Biso 1.000000     H
    H   1.0     0.585845     0.379545     0.182374  Biso 1.000000     H
    H   1.0     0.438795     0.308647     0.201413  Biso 1.000000     H
    H   1.0     0.382608     0.221547     0.295646  Biso 1.000000     H
    H   1.0     0.472748     0.205629     0.369767  Biso 1.000000     H
    H   1.0     0.809110     0.308106     0.399675  Biso 1.000000     H
    H   1.0     0.931663     0.437537     0.422826  Biso 1.000000     H
    H   1.0     0.929682     0.565705     0.413736  Biso 1.000000     H
    H   1.0     0.802852     0.563640     0.384820  Biso 1.000000     H
    H   1.0     0.680079     0.435354     0.363762  Biso 1.000000     H
    H   1.0     0.415397     0.264956     0.438112  Biso 1.000000     H
    H   1.0     0.277187     0.205159     0.396910  Biso 1.000000     H
    H   1.0     0.166133     0.190653     0.466165  Biso 1.000000     H
    H   1.0     0.194260     0.233979     0.577512  Biso 1.000000     H
    H   1.0     0.332768     0.291358     0.619434  Biso 1.000000     H
    H   1.0     0.648754     0.466529     0.559297  Biso 1.000000     H
    H   1.0     0.717078     0.596034     0.504222  Biso 1.000000     H
    H   1.0     0.640601     0.635497     0.431342  Biso 1.000000     H
    H   1.0     0.494823     0.541837     0.414004  Biso 1.000000     H
    H   1.0     0.426969     0.411258     0.467637  Biso 1.000000     H
    H   1.0     0.771562     0.423007     0.776473  Biso 1.000000     H
    H   1.0     0.709211     0.513663     0.938601  Biso 1.000000     H
    H   1.0     0.533038     0.387143     0.794931  Biso 1.000000     H
    H   1.0     0.634582     0.579343     0.944891  Biso 1.000000     H
    H   1.0     0.526351     0.593703     0.996348  Biso 1.000000     H
    H   1.0     0.350585     0.373831     0.930432  Biso 1.000000     H
    H   1.0     0.451602     0.348065     0.877795  Biso 1.000000     H
    H   1.0     0.689146     0.323785     0.589221  Biso 1.000000     H
    H   1.0     0.793527     0.414143     0.514952  Biso 1.000000     H
    H   1.0     0.868640     0.561101     0.533824  Biso 1.000000     H
    H   1.0     0.837705     0.617396     0.628203  Biso 1.000000     H
    H   1.0     0.732735     0.527461     0.702655  Biso 1.000000     H
    H   1.0     0.502251     0.190955     0.732504  Biso 1.000000     H
    H   1.0     0.510631     0.068469     0.755581  Biso 1.000000     H
    H   1.0     0.641019     0.070776     0.746911  Biso 1.000000     H
    H   1.0     0.764381     0.197800     0.718209  Biso 1.000000     H
    H   1.0     0.757306     0.320482     0.697040  Biso 1.000000     H
    H   1.0     0.849904     0.583067     0.770047  Biso 1.000000     H
    H   1.0     0.927000     0.720869     0.727969  Biso 1.000000     H
    H   1.0     0.021315     0.832578     0.796925  Biso 1.000000     H
    H   1.0     0.035567     0.805470     0.908848  Biso 1.000000     H
    H   1.0     0.955739     0.667331     0.951637  Biso 1.000000     H
    H   1.0     0.816684     0.349758     0.890875  Biso 1.000000     H
    H   1.0     0.878644     0.281129     0.836420  Biso 1.000000     H
    H   1.0     0.996111     0.357861     0.765491  Biso 1.000000     H
    H   1.0     0.049005     0.504289     0.749477  Biso 1.000000     H
    H   1.0     0.985594     0.572537     0.802514  Biso 1.000000     H
    H   1.0     0.422744     0.771157     0.890100  Biso 1.000000     H
    H   1.0     0.513446     0.708909     0.727897  Biso 1.000000     H
    H   1.0     0.386902     0.532734     0.871973  Biso 1.000000     H
    H   1.0     0.579201     0.634468     0.721560  Biso 1.000000     H
    H   1.0     0.593711     0.526394     0.670184  Biso 1.000000     H
    H   1.0     0.373910     0.350472     0.736731  Biso 1.000000     H
    H   1.0     0.347981     0.451327     0.789306  Biso 1.000000     H
    H   1.0     0.323338     0.688704     0.077530  Biso 1.000000     H
    H   1.0     0.413663     0.793134     0.151492  Biso 1.000000     H
    H   1.0     0.560657     0.868343     0.132280  Biso 1.000000     H
    H   1.0     0.617048     0.837424     0.037892  Biso 1.000000     H
    H   1.0     0.527149     0.732412     0.963787  Biso 1.000000     H
    H   1.0     0.190783     0.501862     0.934360  Biso 1.000000     H
    H   1.0     0.068227     0.510092     0.911203  Biso 1.000000     H
    H   1.0     0.070246     0.640275     0.919877  Biso 1.000000     H
    H   1.0     0.197077     0.763612     0.948616  Biso 1.000000     H
    H   1.0     0.319862     0.756716     0.969803  Biso 1.000000     H
    H   1.0     0.583169     0.849243     0.895933  Biso 1.000000     H
    H   1.0     0.721150     0.926272     0.937479  Biso 1.000000     H
    H   1.0     0.832663     0.020787     0.868154  Biso 1.000000     H
    H   1.0     0.805195     0.035292     0.756386  Biso 1.000000     H
    H   1.0     0.666883     0.955530     0.714130  Biso 1.000000     H
    H   1.0     0.349524     0.816479     0.775599  Biso 1.000000     H
    H   1.0     0.280887     0.878420     0.830094  Biso 1.000000     H
    H   1.0     0.357629     0.995671     0.900902  Biso 1.000000     H
    H   1.0     0.504048     0.048345     0.916793  Biso 1.000000     H
    H   1.0     0.572289     0.984902     0.863732  Biso 1.000000     H
    H   1.0     0.228695     0.653428     0.556475  Biso 1.000000     H
    H   1.0     0.290030     0.805568     0.394147  Biso 1.000000     H
    H   1.0     0.466305     0.854921     0.538162  Biso 1.000000     H
    H   1.0     0.364506     0.946156     0.388068  Biso 1.000000     H
    H   1.0     0.472710     0.067772     0.336754  Biso 1.000000     H
    H   1.0     0.648551     0.021724     0.402789  Biso 1.000000     H
    H   1.0     0.547594     0.895851     0.455155  Biso 1.000000     H
    H   1.0     0.310943     0.635854     0.743655  Biso 1.000000     H
    H   1.0     0.205981     0.621910     0.817752  Biso 1.000000     H
    H   1.0     0.130111     0.693899     0.798813  Biso 1.000000     H
    H   1.0     0.161043     0.781322     0.704712  Biso 1.000000     H
    H   1.0     0.266664     0.796352     0.630514  Biso 1.000000     H
    H   1.0     0.498606     0.689431     0.600504  Biso 1.000000     H
    H   1.0     0.491057     0.559055     0.577477  Biso 1.000000     H
    H   1.0     0.361095     0.432043     0.586223  Biso 1.000000     H
    H   1.0     0.237278     0.436280     0.614807  Biso 1.000000     H
    H   1.0     0.243502     0.565551     0.635848  Biso 1.000000     H
    H   1.0     0.150661     0.737392     0.561918  Biso 1.000000     H
    H   1.0     0.071598     0.797067     0.603503  Biso 1.000000     H
    H   1.0     0.974053     0.810714     0.534805  Biso 1.000000     H
    H   1.0     0.958564     0.766753     0.423583  Biso 1.000000     H
    H   1.0     0.040361     0.709508     0.381239  Biso 1.000000     H
    H   1.0     0.184083     0.534968     0.442062  Biso 1.000000     H
    H   1.0     0.123481     0.405508     0.497199  Biso 1.000000     H
    H   1.0     0.006770     0.365976     0.568985  Biso 1.000000     H
    H   1.0     0.953293     0.459594     0.585173  Biso 1.000000     H
    H   1.0     0.015478     0.590196     0.531535  Biso 1.000000     H
    H   1.0     0.347503     0.576648     0.223284  Biso 1.000000     H
    H   1.0     0.195205     0.485845     0.061505  Biso 1.000000     H
    H   1.0     0.144909     0.613257     0.205104  Biso 1.000000     H
    H   1.0     0.056196     0.420755     0.055108  Biso 1.000000     H
    H   1.0     0.933964     0.406462     0.003513  Biso 1.000000     H
    H   1.0     0.975260     0.626103     0.069754  Biso 1.000000     H
    H   1.0     0.101520     0.651786     0.122577  Biso 1.000000     H
    H   1.0     0.364493     0.676417     0.410101  Biso 1.000000     H
    H   1.0     0.379535     0.586001     0.484204  Biso 1.000000     H
    H   1.0     0.308658     0.438986     0.465572  Biso 1.000000     H
    H   1.0     0.221404     0.382688     0.371624  Biso 1.000000     H
    H   1.0     0.205332     0.472677     0.297370  Biso 1.000000     H
    H   1.0     0.308023     0.809153     0.267060  Biso 1.000000     H
    H   1.0     0.437590     0.931683     0.243786  Biso 1.000000     H
    H   1.0     0.565718     0.929503     0.252503  Biso 1.000000     H
    H   1.0     0.563476     0.802507     0.281172  Biso 1.000000     H
    H   1.0     0.435070     0.679787     0.302383  Biso 1.000000     H
    H   1.0     0.264600     0.415188     0.229050  Biso 1.000000     H
    H   1.0     0.204741     0.277013     0.270520  Biso 1.000000     H
    H   1.0     0.190377     0.166034     0.201479  Biso 1.000000     H
    H   1.0     0.233911     0.194194     0.090069  Biso 1.000000     H
    H   1.0     0.291345     0.332660     0.047878  Biso 1.000000     H
    H   1.0     0.466426     0.648529     0.107345  Biso 1.000000     H
    H   1.0     0.595886     0.716806     0.162263  Biso 1.000000     H
    H   1.0     0.635249     0.640333     0.235269  Biso 1.000000     H
    H   1.0     0.541534     0.494596     0.252886  Biso 1.000000     H
    H   1.0     0.411000     0.426787     0.199415  Biso 1.000000     H
    C   1.0     0.753697     0.350649     0.112413  Biso 1.000000     C
    C   1.0     0.705834     0.273020     0.136410  Biso 1.000000     C
    C   1.0     0.724987     0.251390     0.193699  Biso 1.000000     C
    C   1.0     0.792066     0.307810     0.227472  Biso 1.000000     C
    C   1.0     0.839261     0.386074     0.204862  Biso 1.000000     C
    C   1.0     0.818730     0.406741     0.147282  Biso 1.000000     C
    C   1.0     0.910254     0.446718     0.239106  Biso 1.000000     C
    C   1.0     0.959949     0.426844     0.274024  Biso 1.000000     C
    C   1.0     0.028130     0.487021     0.302732  Biso 1.000000     C
    C   1.0     0.000000     0.584675     0.266478  Biso 1.000000     C
    C   1.0     0.932420     0.528150     0.236634  Biso 1.000000     C
    C   1.0     0.716062     0.295984     0.985941  Biso 1.000000     C
    C   1.0     0.667310     0.278332     0.932590  Biso 1.000000     C
    C   1.0     0.659308     0.219108     0.890699  Biso 1.000000     C
    C   1.0     0.699869     0.176553     0.901217  Biso 1.000000     C
    C   1.0     0.749063     0.194104     0.953711  Biso 1.000000     C
    C   1.0     0.757432     0.253532     0.995613  Biso 1.000000     C
    C   1.0     0.634088     0.441718     0.063270  Biso 1.000000     C
    C   1.0     0.560681     0.437534     0.075874  Biso 1.000000     C
    C   1.0     0.489443     0.364576     0.071522  Biso 1.000000     C
    C   1.0     0.491842     0.295243     0.055466  Biso 1.000000     C
    C   1.0     0.565002     0.298766     0.043527  Biso 1.000000     C
    C   1.0     0.636806     0.372321     0.046831  Biso 1.000000     C
    C   1.0     0.717862     0.099523     0.197847  Biso 1.000000     C
    C   1.0     0.744658     0.109367     0.135586  Biso 1.000000     C
    C   1.0     0.778089     0.064618     0.112198  Biso 1.000000     C
    C   1.0     0.785354     0.000000     0.150824  Biso 1.000000     C
    C   1.0     0.759963     0.000000     0.213045  Biso 1.000000     C
    C   1.0     0.726639     0.045482     0.236663  Biso 1.000000     C
    C   1.0     0.573008     0.105192     0.183865  Biso 1.000000     C
    C   1.0     0.519278     0.134086     0.193428  Biso 1.000000     C
    C   1.0     0.445928     0.099613     0.162305  Biso 1.000000     C
    C   1.0     0.424216     0.034777     0.121951  Biso 1.000000     C
    C   1.0     0.476696     0.005043     0.112708  Biso 1.000000     C
    C   1.0     0.550662     0.040088     0.143275  Biso 1.000000     C
    C   1.0     0.598447     0.247173     0.445715  Biso 1.000000     C
    C   1.0     0.568772     0.295556     0.469659  Biso 1.000000     C
    C   1.0     0.528006     0.276475     0.526897  Biso 1.000000     C
    C   1.0     0.517301     0.209025     0.560644  Biso 1.000000     C
    C   1.0     0.548276     0.161325     0.538070  Biso 1.000000     C
    C   1.0     0.589426     0.181718     0.480530  Biso 1.000000     C
    C   1.0     0.537471     0.089770     0.572231  Biso 1.000000     C
    C   1.0     0.468327     0.041283     0.607550  Biso 1.000000     C
    C   1.0     0.459617     0.972415     0.636158  Biso 1.000000     C
    C   1.0     0.582506    -0.003779     0.599143  Biso 1.000000     C
    C   1.0     0.595705     0.065873     0.569358  Biso 1.000000     C
    C   1.0     0.581375     0.285297     0.319272  Biso 1.000000     C
    C   1.0     0.612195     0.333834     0.265746  Biso 1.000000     C
    C   1.0     0.561119     0.342239     0.223847  Biso 1.000000     C
    C   1.0     0.478459     0.302288     0.234501  Biso 1.000000     C
    C   1.0     0.447113     0.253367     0.287206  Biso 1.000000     C
    C   1.0     0.498018     0.244618     0.329142  Biso 1.000000     C
    C   1.0     0.807763     0.364261     0.396579  Biso 1.000000     C
    C   1.0     0.876774     0.437078     0.409157  Biso 1.000000     C
    C   1.0     0.875557     0.508962     0.404428  Biso 1.000000     C
    C   1.0     0.804509     0.507787     0.388051  Biso 1.000000     C
    C   1.0     0.735059     0.435228     0.376170  Biso 1.000000     C
    C   1.0     0.736332     0.362793     0.379840  Biso 1.000000     C
    C   1.0     0.383603     0.284245     0.531211  Biso 1.000000     C
    C   1.0     0.367083     0.258241     0.468817  Biso 1.000000     C
    C   1.0     0.289271     0.224891     0.445516  Biso 1.000000     C
    C   1.0     0.227012     0.216870     0.484368  Biso 1.000000     C
    C   1.0     0.242830     0.241445     0.546717  Biso 1.000000     C
    C   1.0     0.320735     0.274709     0.570246  Biso 1.000000     C
    C   1.0     0.532894     0.428821     0.517155  Biso 1.000000     C
    C   1.0     0.614807     0.482436     0.527220  Biso 1.000000     C
    C   1.0     0.653383     0.555814     0.496046  Biso 1.000000     C
    C   1.0     0.610633     0.577657     0.455096  Biso 1.000000     C
    C   1.0     0.529108     0.525308     0.445338  Biso 1.000000     C
    C   1.0     0.490502     0.451325     0.475986  Biso 1.000000     C
    C   1.0     0.649674     0.401673     0.778812  Biso 1.000000     C
    C   1.0     0.727405     0.431173     0.802668  Biso 1.000000     C
    C   1.0     0.748703     0.471716     0.859914  Biso 1.000000     C
    C   1.0     0.691908     0.482500     0.893718  Biso 1.000000     C
    C   1.0     0.613558     0.451664     0.871277  Biso 1.000000     C
    C   1.0     0.593210     0.410706     0.813749  Biso 1.000000     C
    C   1.0     0.552705     0.462446     0.905528  Biso 1.000000     C
    C   1.0     0.572514     0.531650     0.940559  Biso 1.000000     C
    C   1.0     0.512220     0.540241     0.969225  Biso 1.000000     C
    C   1.0     0.414614     0.417106     0.932880  Biso 1.000000     C
    C   1.0     0.471276     0.404018     0.903056  Biso 1.000000     C
    C   1.0     0.704398     0.418838     0.652174  Biso 1.000000     C
    C   1.0     0.722079     0.387952     0.598554  Biso 1.000000     C
    C   1.0     0.780941     0.438920     0.556476  Biso 1.000000     C
    C   1.0     0.823061     0.521527     0.567040  Biso 1.000000     C
    C   1.0     0.805496     0.552931     0.619832  Biso 1.000000     C
    C   1.0     0.746451     0.502138     0.661962  Biso 1.000000     C
    C   1.0     0.559836     0.192452     0.729559  Biso 1.000000     C
    C   1.0     0.564492     0.123465     0.742111  Biso 1.000000     C
    C   1.0     0.637704     0.124863     0.737583  Biso 1.000000     C
    C   1.0     0.706808     0.196031     0.721332  Biso 1.000000     C
    C   1.0     0.702815     0.265433     0.709415  Biso 1.000000     C
    C   1.0     0.629007     0.264001     0.712974  Biso 1.000000     C
    C   1.0     0.899493     0.615714     0.863382  Biso 1.000000     C
    C   1.0     0.890507     0.631643     0.800637  Biso 1.000000     C
    C   1.0     0.934217     0.709241     0.776840  Biso 1.000000     C
    C   1.0    -0.012788     0.771868     0.815526  Biso 1.000000     C
    C   1.0    -0.004551     0.756626     0.878195  Biso 1.000000     C
    C   1.0     0.951560     0.678927     0.902225  Biso 1.000000     C
    C   1.0     0.895999     0.466184     0.850358  Biso 1.000000     C
    C   1.0     0.867244     0.383878     0.859680  Biso 1.000000     C
    C   1.0     0.902483     0.345112     0.828842  Biso 1.000000     C
    C   1.0     0.967938     0.388010     0.788983  Biso 1.000000     C
    C   1.0     0.997538     0.469893     0.779968  Biso 1.000000     C
    C   1.0     0.961760     0.508718     0.810282  Biso 1.000000     C
    C   1.0     0.401411     0.649312     0.887923  Biso 1.000000     C
    C   1.0     0.430913     0.727026     0.863943  Biso 1.000000     C
    C   1.0     0.471477     0.748336     0.806615  Biso 1.000000     C
    C   1.0     0.482283     0.691591     0.772855  Biso 1.000000     C
    C   1.0     0.451462     0.613268     0.795437  Biso 1.000000     C
    C   1.0     0.410472     0.592890     0.853046  Biso 1.000000     C
    C   1.0     0.462323     0.552494     0.761249  Biso 1.000000     C
    C   1.0     0.531546     0.572396     0.726045  Biso 1.000000     C
    C   1.0     0.540236     0.512190     0.697440  Biso 1.000000     C
    C   1.0     0.417139     0.414496     0.734139  Biso 1.000000     C
    C   1.0     0.403948     0.471069     0.763908  Biso 1.000000     C
    C   1.0     0.418451     0.704008     0.014425  Biso 1.000000     C
    C   1.0     0.387525     0.721667     0.068055  Biso 1.000000     C
    C   1.0     0.438471     0.780565     0.109956  Biso 1.000000     C
    C   1.0     0.521105     0.822732     0.099203  Biso 1.000000     C
    C   1.0     0.552560     0.805185     0.046408  Biso 1.000000     C
    C   1.0     0.501781     0.746105     0.004463  Biso 1.000000     C
    C   1.0     0.192163     0.559367     0.937288  Biso 1.000000     C
    C   1.0     0.123134     0.563935     0.924702  Biso 1.000000     C
    C   1.0     0.124368     0.637033     0.929233  Biso 1.000000     C
    C   1.0     0.195432     0.706123     0.945497  Biso 1.000000     C
    C   1.0     0.264889     0.702231     0.957434  Biso 1.000000     C
    C   1.0     0.263608     0.628528     0.953883  Biso 1.000000     C
    C   1.0     0.615529     0.899067     0.802540  Biso 1.000000     C
    C   1.0     0.631664     0.889941     0.865187  Biso 1.000000     C
    C   1.0     0.709358     0.933610     0.888681  Biso 1.000000     C
    C   1.0     0.771881    -0.013286     0.849786  Biso 1.000000     C
    C   1.0     0.756434    -0.004907     0.787204  Biso 1.000000     C
    C   1.0     0.678635     0.951233     0.763476  Biso 1.000000     C
    C   1.0     0.465933     0.895558     0.816009  Biso 1.000000     C
    C   1.0     0.383634     0.866931     0.806759  Biso 1.000000     C
    C   1.0     0.344866     0.902158     0.837615  Biso 1.000000     C
    C   1.0     0.387771     0.967489     0.877410  Biso 1.000000     C
    C   1.0     0.469651     0.996963     0.886353  Biso 1.000000     C
    C   1.0     0.508471     0.961180     0.856032  Biso 1.000000     C
    C   1.0     0.350151     0.753356     0.554211  Biso 1.000000     C
    C   1.0     0.272557     0.705467     0.530292  Biso 1.000000     C
    C   1.0     0.251006     0.724619     0.472966  Biso 1.000000     C
    C   1.0     0.307442     0.791806     0.439126  Biso 1.000000     C
    C   1.0     0.385680     0.839012     0.461654  Biso 1.000000     C
    C   1.0     0.406240     0.818517     0.519294  Biso 1.000000     C
    C   1.0     0.446395     0.910164     0.427426  Biso 1.000000     C
    C   1.0     0.426590     0.959856     0.392410  Biso 1.000000     C
    C   1.0     0.486902     0.028262     0.363853  Biso 1.000000     C
    C   1.0     0.584513     0.000000     0.400231  Biso 1.000000     C
    C   1.0     0.527863     0.932367     0.429923  Biso 1.000000     C
    C   1.0     0.295384     0.715825     0.680823  Biso 1.000000     C
    C   1.0     0.277707     0.667170     0.734318  Biso 1.000000     C
    C   1.0     0.218497     0.659293     0.776292  Biso 1.000000     C
    C   1.0     0.175985     0.699884     0.765715  Biso 1.000000     C
    C   1.0     0.193551     0.748976     0.713070  Biso 1.000000     C
    C   1.0     0.252959     0.757209     0.671079  Biso 1.000000     C
    C   1.0     0.441187     0.633822     0.603450  Biso 1.000000     C
    C   1.0     0.437008     0.560451     0.590937  Biso 1.000000     C
    C   1.0     0.364036     0.489227     0.595515  Biso 1.000000     C
    C   1.0     0.294679     0.491615     0.611686  Biso 1.000000     C
    C   1.0     0.298191     0.564739     0.623543  Biso 1.000000     C
    C   1.0     0.371758     0.636524     0.619990  Biso 1.000000     C
    C   1.0     0.099045     0.717398     0.469112  Biso 1.000000     C
    C   1.0     0.108676     0.743779     0.531427  Biso 1.000000     C
    C   1.0     0.063840     0.777052     0.554958  Biso 1.000000     C
    C   1.0     0.000000     0.784598     0.516415  Biso 1.000000     C
    C   1.0     0.000000     0.759646     0.454138  Biso 1.000000     C
    C   1.0     0.045149     0.726466     0.430383  Biso 1.000000     C
    C   1.0     0.104770     0.572622     0.483074  Biso 1.000000     C
    C   1.0     0.133857     0.519047     0.473630  Biso 1.000000     C
    C   1.0     0.099382     0.445684     0.504853  Biso 1.000000     C
    C   1.0     0.034361     0.423799     0.545193  Biso 1.000000     C
    C   1.0     0.004434     0.476125     0.554311  Biso 1.000000     C
    C   1.0     0.039467     0.550100     0.523640  Biso 1.000000     C
    C   1.0     0.246959     0.598361     0.221048  Biso 1.000000     C
    C   1.0     0.295295     0.568565     0.197177  Biso 1.000000     C
    C   1.0     0.276264     0.527804     0.140032  Biso 1.000000     C
    C   1.0     0.208853     0.517150     0.106332  Biso 1.000000     C
    C   1.0     0.161210     0.548261     0.128812  Biso 1.000000     C
    C   1.0     0.181577     0.589437     0.186246  Biso 1.000000     C
    C   1.0     0.089742     0.537542     0.094634  Biso 1.000000     C
    C   1.0     0.041246     0.468407     0.059500  Biso 1.000000     C
    C   1.0     0.972558     0.459851     0.030750  Biso 1.000000     C
    C   1.0    -0.003469     0.582849     0.067283  Biso 1.000000     C
    C   1.0     0.066013     0.595901     0.097204  Biso 1.000000     C
    C   1.0     0.285068     0.581339     0.347498  Biso 1.000000     C
    C   1.0     0.333690     0.612223     0.400868  Biso 1.000000     C
    C   1.0     0.342172     0.561228     0.442848  Biso 1.000000     C
    C   1.0     0.302232     0.478587     0.432424  Biso 1.000000     C
    C   1.0     0.253223     0.447181     0.379881  Biso 1.000000     C
    C   1.0     0.244387     0.498001     0.337866  Biso 1.000000     C
    C   1.0     0.364160     0.807724     0.269997  Biso 1.000000     C
    C   1.0     0.437053     0.876718     0.257345  Biso 1.000000     C
    C   1.0     0.508915     0.875391     0.261862  Biso 1.000000     C
    C   1.0     0.507644     0.804253     0.278109  Biso 1.000000     C
    C   1.0     0.435011     0.734829     0.290068  Biso 1.000000     C
    C   1.0     0.362597     0.736207     0.286614  Biso 1.000000     C
    C   1.0     0.284053     0.383438     0.136002  Biso 1.000000     C
    C   1.0     0.257942     0.366905     0.198434  Biso 1.000000     C
    C   1.0     0.224564     0.289115     0.221889  Biso 1.000000     C
    C   1.0     0.216624     0.226897     0.183157  Biso 1.000000     C
    C   1.0     0.241314     0.242731     0.120773  Biso 1.000000     C
    C   1.0     0.274606     0.320612     0.097091  Biso 1.000000     C
    C   1.0     0.428641     0.532685     0.149697  Biso 1.000000     C
    C   1.0     0.482286     0.614577     0.139474  Biso 1.000000     C
    C   1.0     0.555640     0.653129     0.170560  Biso 1.000000     C
    C   1.0     0.577430     0.610383     0.211581  Biso 1.000000     C
    C   1.0     0.525050     0.528881     0.221496  Biso 1.000000     C
    C   1.0     0.451092     0.490301     0.190940  Biso 1.000000     C
    N   1.0     0.050314     0.565601     0.298835  Biso 1.000000     N
    N   1.0     0.514977     0.948546     0.631844  Biso 1.000000     N
    N   1.0     0.433651     0.484694     0.965283  Biso 1.000000     N
    N   1.0     0.484742     0.433624     0.701562  Biso 1.000000     N
    N   1.0     0.565513     0.050519     0.367834  Biso 1.000000     N
    N   1.0     0.948879     0.515364     0.034722  Biso 1.000000     N
    P   1.0     0.735968     0.381724     0.035199  Biso 1.000000     P
    P   1.0     0.666682     0.151416     0.228799  Biso 1.000000     P
    P   1.0     0.646795     0.264355     0.368450  Biso 1.000000     P
    P   1.0     0.486100     0.335008     0.562078  Biso 1.000000     P
    P   1.0     0.618888     0.353423     0.701600  Biso 1.000000     P
    P   1.0     0.848725     0.513468     0.894956  Biso 1.000000     P
    P   1.0     0.353108     0.618516     0.965226  Biso 1.000000     P
    P   1.0     0.513172     0.848288     0.771368  Biso 1.000000     P
    P   1.0     0.381169     0.735651     0.631442  Biso 1.000000     P
    P   1.0     0.151016     0.666347     0.438025  Biso 1.000000     P
    P   1.0     0.264098     0.646702     0.298217  Biso 1.000000     P
    P   1.0     0.334847     0.485892     0.104902  Biso 1.000000     P
   Cu   1.0     0.840112     0.497731     0.999779  Biso 1.000000    Cu
   Cu   1.0     0.657624     0.158935     0.333353  Biso 1.000000    Cu
   Cu   1.0     0.502552     0.342376     0.666678  Biso 1.000000    Cu
   Cu   1.0     0.342224     0.502279     0.000216  Biso 1.000000    Cu
   Cu   1.0     0.497189     0.839644     0.666681  Biso 1.000000    Cu
   Cu   1.0     0.158605     0.657528     0.333409  Biso 1.000000    Cu
   Br   1.0     0.833255     0.613049     0.046218  Biso 1.000000    Br
   Br   1.0     0.777328     0.162676     0.381733  Biso 1.000000    Br
   Br   1.0     0.387666     0.221581     0.713863  Biso 1.000000    Br
   Br   1.0     0.221479     0.387362     0.953448  Biso 1.000000    Br
   Br   1.0     0.612509     0.832855     0.619825  Biso 1.000000    Br
   Br   1.0     0.162490     0.777384     0.285098  Biso 1.000000    Br
