#======================================================================

# CRYSTAL DATA

#----------------------------------------------------------------------

data_VESTA_phase_1


_pd_phase_name                         MOF
_cell_length_a                         19.07400
_cell_length_b                         19.06700
_cell_length_c                         21.42300
_cell_angle_alpha                      90.16300
_cell_angle_beta                       89.81000
_cell_angle_gamma                      119.18600
_symmetry_space_group_name_H-M         "P 1"
_symmetry_Int_Tables_number            1

loop_
_symmetry_equiv_pos_as_xyz
   "x, y, z"

loop_
   _atom_site_label
   _atom_site_occupancy
   _atom_site_fract_x
   _atom_site_fract_y
   _atom_site_fract_z
   _atom_site_adp_type
   _atom_site_B_iso_or_equiv
   _atom_site_type_symbol
    H   1.0     0.649245     0.625493     0.931063  Biso 1.000000     H
    H   1.0     0.549037     0.652399     0.876688  Biso 1.000000     H
    H   1.0     0.364392     0.421235     0.942743  Biso 1.000000     H
    H   1.0     0.471637     0.405990     0.995986  Biso 1.000000     H
    H   1.0     0.466915     0.612991     0.792925  Biso 1.000000     H
    H   1.0     0.227236     0.577081     0.774500  Biso 1.000000     H
    H   1.0     0.290827     0.488710     0.937241  Biso 1.000000     H
    H   1.0     0.497231     0.807078     0.729808  Biso 1.000000     H
    H   1.0     0.489516     0.930951     0.753941  Biso 1.000000     H
    H   1.0     0.359321     0.930673     0.745952  Biso 1.000000     H
    H   1.0     0.235336     0.804492     0.717051  Biso 1.000000     H
    H   1.0     0.241693     0.680542     0.695079  Biso 1.000000     H
    H   1.0     0.309336     0.674732     0.587244  Biso 1.000000     H
    H   1.0     0.205242     0.583967     0.513383  Biso 1.000000     H
    H   1.0     0.130066     0.436767     0.532897  Biso 1.000000     H
    H   1.0     0.160274     0.380752     0.627797  Biso 1.000000     H
    H   1.0     0.264907     0.471088     0.701876  Biso 1.000000     H
    H   1.0     0.142957     0.417332     0.767916  Biso 1.000000     H
    H   1.0     0.068435     0.277805     0.728413  Biso 1.000000     H
    H   1.0     0.983409     0.165788     0.800775  Biso 1.000000     H
    H   1.0     0.975503     0.194503     0.913332  Biso 1.000000     H
    H   1.0     0.052705     0.334648     0.953388  Biso 1.000000     H
    H   1.0     0.012847     0.429136     0.802323  Biso 1.000000     H
    H   1.0     0.947528     0.497487     0.751156  Biso 1.000000     H
    H   1.0     0.998908     0.644079     0.768166  Biso 1.000000     H
    H   1.0     0.117263     0.720953     0.837886  Biso 1.000000     H
    H   1.0     0.181368     0.652234     0.890375  Biso 1.000000     H
    H   1.0     0.979089     0.352206     0.263867  Biso 1.000000     H
    H   1.0     0.104498     0.452917     0.210370  Biso 1.000000     H
    H   1.0     0.053439     0.637192     0.278003  Biso 1.000000     H
    H   1.0     0.932865     0.529376     0.330598  Biso 1.000000     H
    H   1.0     0.144157     0.534999     0.126894  Biso 1.000000     H
    H   1.0     0.345385     0.772911     0.108930  Biso 1.000000     H
    H   1.0     0.194779     0.710765     0.272207  Biso 1.000000     H
    H   1.0     0.307360     0.501048     0.063915  Biso 1.000000     H
    H   1.0     0.437415     0.506207     0.087983  Biso 1.000000     H
    H   1.0     0.565473     0.635165     0.079788  Biso 1.000000     H
    H   1.0     0.562948     0.760513     0.051046  Biso 1.000000     H
    H   1.0     0.434115     0.756765     0.029322  Biso 1.000000     H
    H   1.0     0.362669     0.690442     0.921343  Biso 1.000000     H
    H   1.0     0.375769     0.795633     0.847719  Biso 1.000000     H
    H   1.0     0.303620     0.872614     0.867535  Biso 1.000000     H
    H   1.0     0.217130     0.842694     0.962138  Biso 1.000000     H
    H   1.0     0.202835     0.736785     0.035812  Biso 1.000000     H
    H   1.0     0.264344     0.855244     0.104764  Biso 1.000000     H
    H   1.0     0.202911     0.935072     0.066185  Biso 1.000000     H
    H   1.0     0.185597     0.028758     0.137886  Biso 1.000000     H
    H   1.0     0.227790     0.039754     0.249025  Biso 1.000000     H
    H   1.0     0.286906     0.957179     0.288315  Biso 1.000000     H
    H   1.0     0.408938     0.984300     0.133659  Biso 1.000000     H
    H   1.0     0.540603     0.046532     0.081185  Biso 1.000000     H
    H   1.0     0.636057    -0.005527     0.099727  Biso 1.000000     H
    H   1.0     0.597103     0.878806     0.172483  Biso 1.000000     H
    H   1.0     0.466510     0.818137     0.226446  Biso 1.000000     H
    H   1.0     0.375780     0.027763     0.597527  Biso 1.000000     H
    H   1.0     0.348598     0.900823     0.543224  Biso 1.000000     H
    H   1.0     0.578618     0.940457     0.610561  Biso 1.000000     H
    H   1.0     0.594156     0.063184     0.663640  Biso 1.000000     H
    H   1.0     0.387016     0.855669     0.460353  Biso 1.000000     H
    H   1.0     0.422949     0.650856     0.441522  Biso 1.000000     H
    H   1.0     0.511988     0.801864     0.604109  Biso 1.000000     H
    H   1.0     0.192985     0.696684     0.398255  Biso 1.000000     H
    H   1.0     0.069019     0.568212     0.422372  Biso 1.000000     H
    H   1.0     0.068905     0.438129     0.413205  Biso 1.000000     H
    H   1.0     0.194729     0.436839     0.383360  Biso 1.000000     H
    H   1.0     0.318781     0.563974     0.361557  Biso 1.000000     H
    H   1.0     0.325569     0.636727     0.254512  Biso 1.000000     H
    H   1.0     0.416955     0.621769     0.180517  Biso 1.000000     H
    H   1.0     0.564157     0.691540     0.199915  Biso 1.000000     H
    H   1.0     0.619509     0.776941     0.294833  Biso 1.000000     H
    H   1.0     0.528541     0.792810     0.369084  Biso 1.000000     H
    H   1.0     0.583962     0.725743     0.434854  Biso 1.000000     H
    H   1.0     0.723456     0.787326     0.395216  Biso 1.000000     H
    H   1.0     0.835248     0.810108     0.467072  Biso 1.000000     H
    H   1.0     0.806378     0.772928     0.579298  Biso 1.000000     H
    H   1.0     0.666254     0.713352     0.619508  Biso 1.000000     H
    H   1.0     0.571491     0.584850     0.464873  Biso 1.000000     H
    H   1.0     0.503884     0.452901     0.413130  Biso 1.000000     H
    H   1.0     0.358747     0.358368     0.433394  Biso 1.000000     H
    H   1.0     0.282632     0.398761     0.507034  Biso 1.000000     H
    H   1.0     0.350757     0.529936     0.560079  Biso 1.000000     H
    H   1.0     0.027595     0.375803     0.069312  Biso 1.000000     H
    H   1.0     0.900686     0.348864     0.123557  Biso 1.000000     H
    H   1.0     0.940847     0.579116     0.056001  Biso 1.000000     H
    H   1.0     0.063507     0.594380     0.002966  Biso 1.000000     H
    H   1.0     0.855689     0.387442     0.206349  Biso 1.000000     H
    H   1.0     0.651151     0.423725     0.225131  Biso 1.000000     H
    H   1.0     0.802255     0.512659     0.062515  Biso 1.000000     H
    H   1.0     0.696691     0.193447     0.268539  Biso 1.000000     H
    H   1.0     0.568283     0.069454     0.244467  Biso 1.000000     H
    H   1.0     0.438247     0.069359     0.253588  Biso 1.000000     H
    H   1.0     0.436954     0.195239     0.283329  Biso 1.000000     H
    H   1.0     0.564028     0.319335     0.305083  Biso 1.000000     H
    H   1.0     0.636718     0.326100     0.412204  Biso 1.000000     H
    H   1.0     0.621943     0.417599     0.486199  Biso 1.000000     H
    H   1.0     0.691897     0.564872     0.466740  Biso 1.000000     H
    H   1.0     0.777302     0.620174     0.371777  Biso 1.000000     H
    H   1.0     0.793030     0.529093     0.297553  Biso 1.000000     H
    H   1.0     0.727385     0.585341     0.231186  Biso 1.000000     H
    H   1.0     0.788416     0.725011     0.270436  Biso 1.000000     H
    H   1.0     0.809281     0.836214     0.198521  Biso 1.000000     H
    H   1.0     0.770874     0.806638     0.086581  Biso 1.000000     H
    H   1.0     0.711955     0.666398     0.046739  Biso 1.000000     H
    H   1.0     0.585646     0.571800     0.202357  Biso 1.000000     H
    H   1.0     0.453912     0.503982     0.254466  Biso 1.000000     H
    H   1.0     0.359177     0.358975     0.233859  Biso 1.000000     H
    H   1.0     0.399081     0.283199     0.159469  Biso 1.000000     H
    H   1.0     0.530012     0.351551     0.106038  Biso 1.000000     H
    H   1.0     0.625224     0.649290     0.735469  Biso 1.000000     H
    H   1.0     0.652352     0.549220     0.789898  Biso 1.000000     H
    H   1.0     0.421449     0.364190     0.723989  Biso 1.000000     H
    H   1.0     0.405965     0.471322     0.670696  Biso 1.000000     H
    H   1.0     0.613193     0.467111     0.873672  Biso 1.000000     H
    H   1.0     0.577725     0.227503     0.892267  Biso 1.000000     H
    H   1.0     0.489006     0.290788     0.729580  Biso 1.000000     H
    H   1.0     0.807316     0.497933     0.936598  Biso 1.000000     H
    H   1.0     0.931321     0.490553     0.912389  Biso 1.000000     H
    H   1.0     0.931424     0.360504     0.920530  Biso 1.000000     H
    H   1.0     0.805533     0.236345     0.949706  Biso 1.000000     H
    H   1.0     0.681439     0.242360     0.971763  Biso 1.000000     H
    H   1.0     0.675341     0.310107     0.079508  Biso 1.000000     H
    H   1.0     0.584771     0.205969     0.153512  Biso 1.000000     H
    H   1.0     0.437650     0.130399     0.134061  Biso 1.000000     H
    H   1.0     0.381502     0.160242     0.039086  Biso 1.000000     H
    H   1.0     0.471656     0.264912     0.964860  Biso 1.000000     H
    H   1.0     0.418187     0.142778     0.899265  Biso 1.000000     H
    H   1.0     0.278825     0.068399     0.939112  Biso 1.000000     H
    H   1.0     0.166524     0.983791     0.866937  Biso 1.000000     H
    H   1.0     0.194801     0.976156     0.754237  Biso 1.000000     H
    H   1.0     0.334802     0.053194     0.713846  Biso 1.000000     H
    H   1.0     0.429404     0.012498     0.864302  Biso 1.000000     H
    H   1.0     0.497563     0.946875     0.915247  Biso 1.000000     H
    H   1.0     0.644135     0.998302     0.898284  Biso 1.000000     H
    H   1.0     0.721172     0.117039     0.828855  Biso 1.000000     H
    H   1.0     0.652652     0.181502     0.776606  Biso 1.000000     H
    H   1.0     0.352061     0.979291     0.402872  Biso 1.000000     H
    H   1.0     0.452726     0.104621     0.456409  Biso 1.000000     H
    H   1.0     0.636904     0.053450     0.388814  Biso 1.000000     H
    H   1.0     0.529152     0.932959     0.336193  Biso 1.000000     H
    H   1.0     0.534848     0.144229     0.539938  Biso 1.000000     H
    H   1.0     0.772762     0.345386     0.557722  Biso 1.000000     H
    H   1.0     0.710462     0.194857     0.394453  Biso 1.000000     H
    H   1.0     0.501404     0.307913     0.603017  Biso 1.000000     H
    H   1.0     0.507000     0.438242     0.579018  Biso 1.000000     H
    H   1.0     0.636134     0.566118     0.587139  Biso 1.000000     H
    H   1.0     0.761244     0.563108     0.615705  Biso 1.000000     H
    H   1.0     0.757050     0.434014     0.637367  Biso 1.000000     H
    H   1.0     0.690730     0.362742     0.745346  Biso 1.000000     H
    H   1.0     0.795884     0.375680     0.818847  Biso 1.000000     H
    H   1.0     0.872579     0.303249     0.798977  Biso 1.000000     H
    H   1.0     0.842414     0.216663     0.704431  Biso 1.000000     H
    H   1.0     0.736559     0.202563     0.630869  Biso 1.000000     H
    H   1.0     0.855144     0.264718     0.561996  Biso 1.000000     H
    H   1.0     0.934355     0.202637     0.600571  Biso 1.000000     H
    H   1.0     0.027300     0.184284     0.528741  Biso 1.000000     H
    H   1.0     0.038236     0.226213     0.417511  Biso 1.000000     H
    H   1.0     0.956282     0.286036     0.378237  Biso 1.000000     H
    H   1.0     0.984240     0.408909     0.532698  Biso 1.000000     H
    H   1.0     0.046566     0.540574     0.585155  Biso 1.000000     H
    H   1.0    -0.005558     0.636050     0.566869  Biso 1.000000     H
    H   1.0     0.878602     0.597105     0.494389  Biso 1.000000     H
    H   1.0     0.817847     0.466510     0.440446  Biso 1.000000     H
    C   1.0     0.584979     0.582723     0.932897  Biso 1.000000     C
    C   1.0     0.528862     0.596358     0.902154  Biso 1.000000     C
    C   1.0     0.447198     0.538309     0.904058  Biso 1.000000     C
    C   1.0     0.426654     0.468764     0.939108  Biso 1.000000     C
    C   1.0     0.486380     0.459664     0.968723  Biso 1.000000     C
    C   1.0     0.386429     0.549419     0.869531  Biso 1.000000     C
    C   1.0     0.406577     0.589646     0.811804  Biso 1.000000     C
    C   1.0     0.349573     0.598095     0.776763  Biso 1.000000     C
    C   1.0     0.271692     0.569147     0.800770  Biso 1.000000     C
    C   1.0     0.250736     0.529610     0.858310  Biso 1.000000     C
    C   1.0     0.307928     0.519127     0.892145  Biso 1.000000     C
    C   1.0     0.370136     0.735581     0.710719  Biso 1.000000     C
    C   1.0     0.439762     0.806653     0.727330  Biso 1.000000     C
    C   1.0     0.435443     0.876281     0.740405  Biso 1.000000     C
    C   1.0     0.362303     0.876039     0.736264  Biso 1.000000     C
    C   1.0     0.292842     0.805358     0.719879  Biso 1.000000     C
    C   1.0     0.296425     0.735282     0.707492  Biso 1.000000     C
    C   1.0     0.293769     0.579750     0.650709  Biso 1.000000     C
    C   1.0     0.276294     0.610494     0.596918  Biso 1.000000     C
    C   1.0     0.217599     0.559291     0.555057  Biso 1.000000     C
    C   1.0     0.175416     0.476558     0.565998  Biso 1.000000     C
    C   1.0     0.192586     0.445308     0.619069  Biso 1.000000     C
    C   1.0     0.251480     0.496332     0.660987  Biso 1.000000     C
    C   1.0     0.100657     0.385453     0.863119  Biso 1.000000     C
    C   1.0     0.106183     0.368709     0.799940  Biso 1.000000     C
    C   1.0     0.063988     0.290110     0.777610  Biso 1.000000     C
    C   1.0     0.000000     0.227297     0.818215  Biso 1.000000     C
    C   1.0     0.000000     0.243408     0.881245  Biso 1.000000     C
    C   1.0     0.053719     0.322140     0.903792  Biso 1.000000     C
    C   1.0     0.102461     0.535657     0.849818  Biso 1.000000     C
    C   1.0     0.036276     0.493082     0.810346  Biso 1.000000     C
    C   1.0     0.999332     0.531965     0.781137  Biso 1.000000     C
    C   1.0     0.028123     0.613939     0.790672  Biso 1.000000     C
    C   1.0     0.094069     0.656905     0.829873  Biso 1.000000     C
    C   1.0     0.130547     0.618110     0.859564  Biso 1.000000     C
    C   1.0    -0.000835     0.416497     0.266337  Biso 1.000000     C
    C   1.0     0.067969     0.472928     0.236012  Biso 1.000000     C
    C   1.0     0.089822     0.554669     0.238487  Biso 1.000000     C
    C   1.0     0.040114     0.574906     0.273867  Biso 1.000000     C
    C   1.0     0.972298     0.514828     0.303097  Biso 1.000000     C
    C   1.0     0.160615     0.615416     0.203987  Biso 1.000000     C
    C   1.0     0.180659     0.595062     0.145951  Biso 1.000000     C
    C   1.0     0.245439     0.651404     0.110916  Biso 1.000000     C
    C   1.0     0.293555     0.728934     0.135186  Biso 1.000000     C
    C   1.0     0.274975     0.750256     0.192969  Biso 1.000000     C
    C   1.0     0.208076     0.693615     0.226864  Biso 1.000000     C
    C   1.0     0.361940     0.628413     0.044906  Biso 1.000000     C
    C   1.0     0.363575     0.558004     0.061456  Biso 1.000000     C
    C   1.0     0.436671     0.560866     0.074416  Biso 1.000000     C
    C   1.0     0.508529     0.633313     0.070166  Biso 1.000000     C
    C   1.0     0.507109     0.703537     0.053870  Biso 1.000000     C
    C   1.0     0.434293     0.701439     0.041642  Biso 1.000000     C
    C   1.0     0.283051     0.706977     0.984778  Biso 1.000000     C
    C   1.0     0.331365     0.724211     0.931091  Biso 1.000000     C
    C   1.0     0.338776     0.783560     0.889391  Biso 1.000000     C
    C   1.0     0.298098     0.826686     0.900435  Biso 1.000000     C
    C   1.0     0.249499     0.809675     0.953357  Biso 1.000000     C
    C   1.0     0.241673     0.750103     0.995059  Biso 1.000000     C
    C   1.0     0.282012     0.902922     0.198824  Biso 1.000000     C
    C   1.0     0.256569     0.895714     0.136524  Biso 1.000000     C
    C   1.0     0.222216     0.940910     0.114709  Biso 1.000000     C
    C   1.0     0.212606    -0.006463     0.154938  Biso 1.000000     C
    C   1.0     0.236552    -0.000052     0.217177  Biso 1.000000     C
    C   1.0     0.270871     0.954652     0.239232  Biso 1.000000     C
    C   1.0     0.427613     0.896176     0.183675  Biso 1.000000     C
    C   1.0     0.449737     0.960789     0.142489  Biso 1.000000     C
    C   1.0     0.524344    -0.004124     0.112494  Biso 1.000000     C
    C   1.0     0.577689     0.966734     0.122902  Biso 1.000000     C
    C   1.0     0.556143     0.902313     0.163792  Biso 1.000000     C
    C   1.0     0.482138     0.867756     0.194313  Biso 1.000000     C
    C   1.0     0.418242     0.000000     0.599601  Biso 1.000000     C
    C   1.0     0.404452     0.935151     0.568932  Biso 1.000000     C
    C   1.0     0.462122     0.909635     0.571230  Biso 1.000000     C
    C   1.0     0.531424     0.956764     0.606585  Biso 1.000000     C
    C   1.0     0.540701     0.025676     0.636107  Biso 1.000000     C
    C   1.0     0.450916     0.837751     0.536723  Biso 1.000000     C
    C   1.0     0.410429     0.818225     0.479145  Biso 1.000000     C
    C   1.0     0.401774     0.752660     0.444107  Biso 1.000000     C
    C   1.0     0.430923     0.703213     0.467865  Biso 1.000000     C
    C   1.0     0.470878     0.721368     0.525196  Biso 1.000000     C
    C   1.0     0.481350     0.788967     0.559133  Biso 1.000000     C
    C   1.0     0.264061     0.638960     0.378112  Biso 1.000000     C
    C   1.0     0.193173     0.639496     0.395252  Biso 1.000000     C
    C   1.0     0.123538     0.567344     0.408308  Biso 1.000000     C
    C   1.0     0.123558     0.494309     0.403544  Biso 1.000000     C
    C   1.0     0.194036     0.493598     0.386621  Biso 1.000000     C
    C   1.0     0.264155     0.565439     0.374316  Biso 1.000000     C
    C   1.0     0.420158     0.714652     0.317998  Biso 1.000000     C
    C   1.0     0.389791     0.666853     0.264173  Biso 1.000000     C
    C   1.0     0.441341     0.658458     0.222222  Biso 1.000000     C
    C   1.0     0.524064     0.697734     0.233079  Biso 1.000000     C
    C   1.0     0.554962     0.745743     0.286174  Biso 1.000000     C
    C   1.0     0.503584     0.754477     0.328175  Biso 1.000000     C
    C   1.0     0.615627     0.713024     0.529593  Biso 1.000000     C
    C   1.0     0.632496     0.735768     0.466649  Biso 1.000000     C
    C   1.0     0.711077     0.770251     0.444250  Biso 1.000000     C
    C   1.0     0.773761     0.782911     0.484564  Biso 1.000000     C
    C   1.0     0.757548     0.761759     0.547410  Biso 1.000000     C
    C   1.0     0.678842     0.727181     0.570025  Biso 1.000000     C
    C   1.0     0.466042     0.567659     0.515961  Biso 1.000000     C
    C   1.0     0.508188     0.544631     0.474347  Biso 1.000000     C
    C   1.0     0.469709     0.469769     0.444807  Biso 1.000000     C
    C   1.0     0.388552     0.416974     0.456170  Biso 1.000000     C
    C   1.0     0.346020     0.439354     0.497543  Biso 1.000000     C
    C   1.0     0.384455     0.513684     0.527536  Biso 1.000000     C
    C   1.0     0.000000     0.418373     0.067177  Biso 1.000000     C
    C   1.0     0.935123     0.404716     0.097813  Biso 1.000000     C
    C   1.0     0.909784     0.462532     0.095440  Biso 1.000000     C
    C   1.0     0.957022     0.531821     0.060036  Biso 1.000000     C
    C   1.0     0.025906     0.540949     0.030546  Biso 1.000000     C
    C   1.0     0.837978     0.451492     0.129961  Biso 1.000000     C
    C   1.0     0.818335     0.410942     0.187544  Biso 1.000000     C
    C   1.0     0.752810     0.402370     0.222586  Biso 1.000000     C
    C   1.0     0.703484     0.431629     0.198793  Biso 1.000000     C
    C   1.0     0.721724     0.471619     0.141441  Biso 1.000000     C
    C   1.0     0.789296     0.482009     0.107512  Biso 1.000000     C
    C   1.0     0.638980     0.264557     0.288611  Biso 1.000000     C
    C   1.0     0.639524     0.193641     0.271525  Biso 1.000000     C
    C   1.0     0.567405     0.123990     0.258501  Biso 1.000000     C
    C   1.0     0.494400     0.124025     0.263231  Biso 1.000000     C
    C   1.0     0.493691     0.194536     0.280103  Biso 1.000000     C
    C   1.0     0.565496     0.264683     0.292373  Biso 1.000000     C
    C   1.0     0.714747     0.420701     0.348678  Biso 1.000000     C
    C   1.0     0.666925     0.390352     0.402519  Biso 1.000000     C
    C   1.0     0.658625     0.441962     0.444467  Biso 1.000000     C
    C   1.0     0.698008     0.524723     0.433583  Biso 1.000000     C
    C   1.0     0.746027     0.555601     0.380464  Biso 1.000000     C
    C   1.0     0.754679     0.504163     0.338477  Biso 1.000000     C
    C   1.0     0.713156     0.616353     0.136602  Biso 1.000000     C
    C   1.0     0.736595     0.633632     0.199366  Biso 1.000000     C
    C   1.0     0.770767     0.712305     0.221543  Biso 1.000000     C
    C   1.0     0.782360     0.774662     0.181196  Biso 1.000000     C
    C   1.0     0.760529     0.758052     0.118510  Biso 1.000000     C
    C   1.0     0.726302     0.679268     0.096115  Biso 1.000000     C
    C   1.0     0.568052     0.466592     0.150686  Biso 1.000000     C
    C   1.0     0.545310     0.508559     0.192715  Biso 1.000000     C
    C   1.0     0.470581     0.469963     0.222459  Biso 1.000000     C
    C   1.0     0.417666     0.388872     0.210903  Biso 1.000000     C
    C   1.0     0.439768     0.346531     0.169109  Biso 1.000000     C
    C   1.0     0.513955     0.385085     0.138904  Biso 1.000000     C
    C   1.0     0.582554     0.584980     0.733689  Biso 1.000000     C
    C   1.0     0.596318     0.528936     0.764459  Biso 1.000000     C
    C   1.0     0.538414     0.447202     0.762613  Biso 1.000000     C
    C   1.0     0.468868     0.426514     0.727592  Biso 1.000000     C
    C   1.0     0.459631     0.486175     0.697951  Biso 1.000000     C
    C   1.0     0.549667     0.386506     0.797167  Biso 1.000000     C
    C   1.0     0.589945     0.406757     0.854839  Biso 1.000000     C
    C   1.0     0.598537     0.349822     0.889902  Biso 1.000000     C
    C   1.0     0.569689     0.271907     0.865974  Biso 1.000000     C
    C   1.0     0.530081     0.250847     0.808494  Biso 1.000000     C
    C   1.0     0.519480     0.307978     0.774627  Biso 1.000000     C
    C   1.0     0.736136     0.370790     0.955891  Biso 1.000000     C
    C   1.0     0.807059     0.440526     0.939137  Biso 1.000000     C
    C   1.0     0.876763     0.436400     0.926029  Biso 1.000000     C
    C   1.0     0.876738     0.363343     0.930256  Biso 1.000000     C
    C   1.0     0.806213     0.293780     0.946796  Biso 1.000000     C
    C   1.0     0.736059     0.297166     0.959223  Biso 1.000000     C
    C   1.0     0.580333     0.294160     0.016018  Biso 1.000000     C
    C   1.0     0.611134     0.276895     0.069866  Biso 1.000000     C
    C   1.0     0.560045     0.218179     0.111809  Biso 1.000000     C
    C   1.0     0.477353     0.175776     0.100901  Biso 1.000000     C
    C   1.0     0.446030     0.192738     0.047784  Biso 1.000000     C
    C   1.0     0.496951     0.251654     0.005785  Biso 1.000000     C
    C   1.0     0.385939     0.100798     0.804059  Biso 1.000000     C
    C   1.0     0.369441     0.106186     0.867324  Biso 1.000000     C
    C   1.0     0.290933     0.064075     0.889847  Biso 1.000000     C
    C   1.0     0.227962     0.000000     0.849349  Biso 1.000000     C
    C   1.0     0.243826     0.000000     0.786236  Biso 1.000000     C
    C   1.0     0.322473     0.054091     0.763498  Biso 1.000000     C
    C   1.0     0.536006     0.102382     0.817006  Biso 1.000000     C
    C   1.0     0.493342     0.035964     0.856311  Biso 1.000000     C
    C   1.0     0.532116     0.998845     0.885389  Biso 1.000000     C
    C   1.0     0.614080     0.027653     0.875886  Biso 1.000000     C
    C   1.0     0.657135     0.093827     0.836849  Biso 1.000000     C
    C   1.0     0.618451     0.130511     0.807294  Biso 1.000000     C
    C   1.0     0.416325    -0.000688     0.400420  Biso 1.000000     C
    C   1.0     0.472729     0.068084     0.430765  Biso 1.000000     C
    C   1.0     0.554434     0.089907     0.428292  Biso 1.000000     C
    C   1.0     0.574650     0.040169     0.392927  Biso 1.000000     C
    C   1.0     0.514603     0.972402     0.363683  Biso 1.000000     C
    C   1.0     0.615182     0.160691     0.462762  Biso 1.000000     C
    C   1.0     0.594888     0.180717     0.520831  Biso 1.000000     C
    C   1.0     0.651274     0.245463     0.555830  Biso 1.000000     C
    C   1.0     0.728766     0.293574     0.531494  Biso 1.000000     C
    C   1.0     0.750019     0.275015     0.473679  Biso 1.000000     C
    C   1.0     0.693353     0.208144     0.439816  Biso 1.000000     C
    C   1.0     0.628702     0.362140     0.621915  Biso 1.000000     C
    C   1.0     0.558440     0.364041     0.605439  Biso 1.000000     C
    C   1.0     0.561548     0.437295     0.592517  Biso 1.000000     C
    C   1.0     0.634096     0.509049     0.596718  Biso 1.000000     C
    C   1.0     0.704182     0.507364     0.612921  Biso 1.000000     C
    C   1.0     0.701830     0.434391     0.625114  Biso 1.000000     C
    C   1.0     0.707000     0.282948     0.681920  Biso 1.000000     C
    C   1.0     0.724372     0.331315     0.735573  Biso 1.000000     C
    C   1.0     0.783706     0.338641     0.777202  Biso 1.000000     C
    C   1.0     0.826672     0.297807     0.766125  Biso 1.000000     C
    C   1.0     0.809528     0.249160     0.713235  Biso 1.000000     C
    C   1.0     0.749976     0.241428     0.671600  Biso 1.000000     C
    C   1.0     0.902450     0.281778     0.467819  Biso 1.000000     C
    C   1.0     0.895303     0.256521     0.530185  Biso 1.000000     C
    C   1.0     0.940149     0.221795     0.551999  Biso 1.000000     C
    C   1.0    -0.007624     0.211615     0.511697  Biso 1.000000     C
    C   1.0    -0.001249     0.235408     0.449405  Biso 1.000000     C
    C   1.0     0.953798     0.270121     0.427355  Biso 1.000000     C
    C   1.0     0.895994     0.427594     0.482950  Biso 1.000000     C
    C   1.0     0.960691     0.449711     0.523986  Biso 1.000000     C
    C   1.0    -0.004158     0.524320     0.553970  Biso 1.000000     C
    C   1.0     0.966646     0.577678     0.543707  Biso 1.000000     C
    C   1.0     0.902144     0.556141     0.502966  Biso 1.000000     C
    C   1.0     0.867537     0.482131     0.472456  Biso 1.000000     C
    N   1.0     0.565097     0.515011     0.965682  Biso 1.000000     N
    N   1.0     0.950523     0.436032     0.299326  Biso 1.000000     N
    N   1.0     0.485749     0.050876     0.632650  Biso 1.000000     N
    N   1.0     0.050946     0.485869     0.034090  Biso 1.000000     N
    N   1.0     0.514848     0.564957     0.700923  Biso 1.000000     N
    N   1.0     0.435843     0.950680     0.367416  Biso 1.000000     N
    P   1.0     0.379815     0.645224     0.699307  Biso 1.000000     P
    P   1.0     0.150695     0.488389     0.893813  Biso 1.000000     P
    P   1.0     0.262993     0.620503     0.033433  Biso 1.000000     P
    P   1.0     0.333600     0.850078     0.228556  Biso 1.000000     P
    P   1.0     0.354463     0.736657     0.366826  Biso 1.000000     P
    P   1.0     0.512704     0.662063     0.560277  Biso 1.000000     P
    P   1.0     0.736664     0.354935     0.299864  Biso 1.000000     P
    P   1.0     0.662366     0.513283     0.106234  Biso 1.000000     P
    P   1.0     0.645669     0.380227     0.967309  Biso 1.000000     P
    P   1.0     0.488757     0.150718     0.773120  Biso 1.000000     P
    P   1.0     0.620538     0.263033     0.633370  Biso 1.000000     P
    P   1.0     0.849841     0.333597     0.438072  Biso 1.000000     P
   Cl   1.0     0.603370     0.768969     0.709389  Biso 1.000000    Cl
   Cl   1.0     0.167511     0.396370     0.042392  Biso 1.000000    Cl
   Cl   1.0     0.232532     0.841020     0.380586  Biso 1.000000    Cl
   Cl   1.0     0.840781     0.232746     0.285938  Biso 1.000000    Cl
   Cl   1.0     0.769048     0.603924     0.957087  Biso 1.000000    Cl
   Cl   1.0     0.396585     0.167827     0.624677  Biso 1.000000    Cl
   Cu   1.0     0.497082     0.656729     0.664570  Biso 1.000000    Cu
   Cu   1.0     0.160276     0.503705     0.998197  Biso 1.000000    Cu
   Cu   1.0     0.342430     0.842359     0.332860  Biso 1.000000    Cu
   Cu   1.0     0.842165     0.342621     0.333797  Biso 1.000000    Cu
   Cu   1.0     0.656969     0.497453     0.001973  Biso 1.000000    Cu
   Cu   1.0     0.503768     0.160250     0.668704  Biso 1.000000    Cu
