#======================================================================

# CRYSTAL DATA

#----------------------------------------------------------------------

data_VESTA_phase_1


_pd_phase_name                         MOF
_cell_length_a                         17.67100
_cell_length_b                         17.67100
_cell_length_c                         13.70300
_cell_angle_alpha                      95.66100
_cell_angle_beta                       95.65300
_cell_angle_gamma                      92.63000
_symmetry_space_group_name_H-M         "P 1"
_symmetry_Int_Tables_number            1

loop_
_symmetry_equiv_pos_as_xyz
   "x, y, z"

loop_
   _atom_site_label
   _atom_site_occupancy
   _atom_site_fract_x
   _atom_site_fract_y
   _atom_site_fract_z
   _atom_site_adp_type
   _atom_site_B_iso_or_equiv
   _atom_site_type_symbol
    H   1.0     0.227568     0.205899     0.576149  Biso 1.000000     H
    H   1.0     0.227569     0.705911     0.576148  Biso 1.000000     H
    H   1.0     0.727563     0.205901     0.576149  Biso 1.000000     H
    H   1.0     0.727563     0.705914     0.576149  Biso 1.000000     H
    H   1.0     0.230225     0.308118     0.582254  Biso 1.000000     H
    H   1.0     0.230225     0.808132     0.582255  Biso 1.000000     H
    H   1.0     0.730219     0.308116     0.582254  Biso 1.000000     H
    H   1.0     0.730221     0.808131     0.582255  Biso 1.000000     H
    H   1.0     0.305276     0.383314     0.715221  Biso 1.000000     H
    H   1.0     0.305274     0.883327     0.715221  Biso 1.000000     H
    H   1.0     0.805269     0.383312     0.715221  Biso 1.000000     H
    H   1.0     0.805271     0.883326     0.715222  Biso 1.000000     H
    H   1.0     0.358732     0.337249     0.808323  Biso 1.000000     H
    H   1.0     0.358733     0.837264     0.808324  Biso 1.000000     H
    H   1.0     0.858725     0.337250     0.808319  Biso 1.000000     H
    H   1.0     0.858727     0.837263     0.808321  Biso 1.000000     H
    H   1.0     0.119674     0.331288     0.793216  Biso 1.000000     H
    H   1.0     0.119672     0.831301     0.793218  Biso 1.000000     H
    H   1.0     0.619668     0.331287     0.793215  Biso 1.000000     H
    H   1.0     0.619669     0.831303     0.793217  Biso 1.000000     H
    H   1.0     0.355051     0.200588     0.800050  Biso 1.000000     H
    H   1.0     0.355052     0.700602     0.800049  Biso 1.000000     H
    H   1.0     0.855043     0.200588     0.800046  Biso 1.000000     H
    H   1.0     0.855044     0.700601     0.800046  Biso 1.000000     H
    H   1.0     0.447885     0.342164     0.441930  Biso 1.000000     H
    H   1.0     0.447887     0.842179     0.441930  Biso 1.000000     H
    H   1.0     0.947880     0.342165     0.441930  Biso 1.000000     H
    H   1.0     0.947881     0.842178     0.441930  Biso 1.000000     H
    H   1.0     0.408191     0.263404     0.385928  Biso 1.000000     H
    H   1.0     0.408191     0.763419     0.385928  Biso 1.000000     H
    H   1.0     0.908185     0.263405     0.385927  Biso 1.000000     H
    H   1.0     0.908186     0.763418     0.385928  Biso 1.000000     H
    H   1.0     0.294106     0.272426     0.923863  Biso 1.000000     H
    H   1.0     0.294103     0.772440     0.923861  Biso 1.000000     H
    H   1.0     0.794097     0.272426     0.923860  Biso 1.000000     H
    H   1.0     0.794097     0.772440     0.923860  Biso 1.000000     H
    H   1.0     0.191883     0.269767     0.917774  Biso 1.000000     H
    H   1.0     0.191884     0.769780     0.917774  Biso 1.000000     H
    H   1.0     0.691880     0.269767     0.917772  Biso 1.000000     H
    H   1.0     0.691881     0.769781     0.917773  Biso 1.000000     H
    H   1.0     0.116689     0.194724     0.784816  Biso 1.000000     H
    H   1.0     0.116690     0.694736     0.784816  Biso 1.000000     H
    H   1.0     0.616685     0.194722     0.784814  Biso 1.000000     H
    H   1.0     0.616686     0.694738     0.784815  Biso 1.000000     H
    H   1.0     0.162744     0.141261     0.691688  Biso 1.000000     H
    H   1.0     0.162745     0.641277     0.691691  Biso 1.000000     H
    H   1.0     0.662739     0.141263     0.691691  Biso 1.000000     H
    H   1.0     0.662739     0.641279     0.691693  Biso 1.000000     H
    H   1.0     0.168703     0.380332     0.706852  Biso 1.000000     H
    H   1.0     0.168702     0.880342     0.706854  Biso 1.000000     H
    H   1.0     0.668696     0.380329     0.706852  Biso 1.000000     H
    H   1.0     0.668698     0.880343     0.706853  Biso 1.000000     H
    H   1.0     0.299406     0.144947     0.699926  Biso 1.000000     H
    H   1.0     0.299408     0.644962     0.699928  Biso 1.000000     H
    H   1.0     0.799402     0.144950     0.699929  Biso 1.000000     H
    H   1.0     0.799402     0.644963     0.699929  Biso 1.000000     H
    H   1.0     0.157854     0.052105     0.058121  Biso 1.000000     H
    H   1.0     0.157856     0.552120     0.058120  Biso 1.000000     H
    H   1.0     0.657849     0.052105     0.058120  Biso 1.000000     H
    H   1.0     0.657849     0.552119     0.058121  Biso 1.000000     H
    H   1.0     0.236623     0.091839     0.114036  Biso 1.000000     H
    H   1.0     0.236625     0.591852     0.114037  Biso 1.000000     H
    H   1.0     0.736619     0.091839     0.114036  Biso 1.000000     H
    H   1.0     0.736619     0.591853     0.114036  Biso 1.000000     H
    H   1.0     0.272452     0.294138     0.423839  Biso 1.000000     H
    H   1.0     0.272452     0.794153     0.423841  Biso 1.000000     H
    H   1.0     0.772446     0.294139     0.423839  Biso 1.000000     H
    H   1.0     0.772447     0.794152     0.423839  Biso 1.000000     H
    H   1.0     0.269790     0.191921     0.417735  Biso 1.000000     H
    H   1.0     0.269792     0.691936     0.417736  Biso 1.000000     H
    H   1.0     0.769786     0.191921     0.417735  Biso 1.000000     H
    H   1.0     0.769786     0.691935     0.417735  Biso 1.000000     H
    H   1.0     0.194738     0.116728     0.284769  Biso 1.000000     H
    H   1.0     0.194741     0.616742     0.284770  Biso 1.000000     H
    H   1.0     0.694734     0.116728     0.284769  Biso 1.000000     H
    H   1.0     0.694733     0.616742     0.284769  Biso 1.000000     H
    H   1.0     0.141284     0.162792     0.191669  Biso 1.000000     H
    H   1.0     0.141286     0.662805     0.191670  Biso 1.000000     H
    H   1.0     0.641279     0.162791     0.191668  Biso 1.000000     H
    H   1.0     0.641280     0.662806     0.191669  Biso 1.000000     H
    H   1.0     0.380341     0.168744     0.206773  Biso 1.000000     H
    H   1.0     0.380343     0.668760     0.206774  Biso 1.000000     H
    H   1.0     0.880337     0.168746     0.206772  Biso 1.000000     H
    H   1.0     0.880336     0.668758     0.206773  Biso 1.000000     H
    H   1.0     0.144972     0.299455     0.199941  Biso 1.000000     H
    H   1.0     0.144972     0.799468     0.199942  Biso 1.000000     H
    H   1.0     0.644966     0.299454     0.199940  Biso 1.000000     H
    H   1.0     0.644966     0.799469     0.199940  Biso 1.000000     H
    H   1.0     0.052124     0.157864     0.558056  Biso 1.000000     H
    H   1.0     0.052124     0.657877     0.558057  Biso 1.000000     H
    H   1.0     0.552118     0.157863     0.558057  Biso 1.000000     H
    H   1.0     0.552119     0.657878     0.558057  Biso 1.000000     H
    H   1.0     0.091821     0.236623     0.614059  Biso 1.000000     H
    H   1.0     0.091822     0.736636     0.614060  Biso 1.000000     H
    H   1.0     0.591815     0.236622     0.614058  Biso 1.000000     H
    H   1.0     0.591815     0.736637     0.614059  Biso 1.000000     H
    H   1.0     0.205914     0.227613     0.076127  Biso 1.000000     H
    H   1.0     0.205917     0.727626     0.076128  Biso 1.000000     H
    H   1.0     0.705910     0.227613     0.076126  Biso 1.000000     H
    H   1.0     0.705909     0.727627     0.076126  Biso 1.000000     H
    H   1.0     0.308135     0.230267     0.082216  Biso 1.000000     H
    H   1.0     0.308135     0.730282     0.082218  Biso 1.000000     H
    H   1.0     0.808130     0.230268     0.082216  Biso 1.000000     H
    H   1.0     0.808130     0.730282     0.082216  Biso 1.000000     H
    H   1.0     0.383332     0.305309     0.215174  Biso 1.000000     H
    H   1.0     0.383332     0.805325     0.215176  Biso 1.000000     H
    H   1.0     0.883326     0.305311     0.215174  Biso 1.000000     H
    H   1.0     0.883327     0.805323     0.215174  Biso 1.000000     H
    H   1.0     0.337278     0.358772     0.308300  Biso 1.000000     H
    H   1.0     0.337278     0.858786     0.308300  Biso 1.000000     H
    H   1.0     0.837272     0.358773     0.308299  Biso 1.000000     H
    H   1.0     0.837273     0.858787     0.308300  Biso 1.000000     H
    H   1.0     0.331311     0.119703     0.293137  Biso 1.000000     H
    H   1.0     0.331314     0.619719     0.293138  Biso 1.000000     H
    H   1.0     0.831307     0.119705     0.293136  Biso 1.000000     H
    H   1.0     0.831306     0.619717     0.293137  Biso 1.000000     H
    H   1.0     0.200617     0.355092     0.300061  Biso 1.000000     H
    H   1.0     0.200616     0.855106     0.300061  Biso 1.000000     H
    H   1.0     0.700610     0.355092     0.300060  Biso 1.000000     H
    H   1.0     0.700612     0.855107     0.300061  Biso 1.000000     H
    H   1.0     0.342155     0.447923     0.941867  Biso 1.000000     H
    H   1.0     0.342155     0.947937     0.941867  Biso 1.000000     H
    H   1.0     0.842148     0.447924     0.941866  Biso 1.000000     H
    H   1.0     0.842150     0.947938     0.941866  Biso 1.000000     H
    H   1.0     0.263383     0.408191     0.885950  Biso 1.000000     H
    H   1.0     0.263383     0.908205     0.885951  Biso 1.000000     H
    H   1.0     0.763378     0.408193     0.885950  Biso 1.000000     H
    H   1.0     0.763379     0.908206     0.885951  Biso 1.000000     H
    C   1.0     0.323066     0.083469     0.522536  Biso 1.000000     C
    C   1.0     0.323067     0.583483     0.522536  Biso 1.000000     C
    C   1.0     0.823061     0.083469     0.522534  Biso 1.000000     C
    C   1.0     0.823061     0.583483     0.522535  Biso 1.000000     C
    C   1.0     0.234554     0.012505     0.635857  Biso 1.000000     C
    C   1.0     0.234557     0.512519     0.635856  Biso 1.000000     C
    C   1.0     0.734550     0.012505     0.635855  Biso 1.000000     C
    C   1.0     0.734550     0.512519     0.635856  Biso 1.000000     C
    C   1.0     0.324212     0.429389     0.530907  Biso 1.000000     C
    C   1.0     0.324212     0.929404     0.530908  Biso 1.000000     C
    C   1.0     0.824206     0.429390     0.530906  Biso 1.000000     C
    C   1.0     0.824208     0.929403     0.530906  Biso 1.000000     C
    C   1.0     0.231371     0.259100     0.625310  Biso 1.000000     C
    C   1.0     0.231372     0.759111     0.625308  Biso 1.000000     C
    C   1.0     0.731367     0.259099     0.625314  Biso 1.000000     C
    C   1.0     0.731368     0.759113     0.625313  Biso 1.000000     C
    C   1.0     0.306030     0.334159     0.758206  Biso 1.000000     C
    C   1.0     0.306032     0.834172     0.758206  Biso 1.000000     C
    C   1.0     0.806022     0.334155     0.758203  Biso 1.000000     C
    C   1.0     0.806024     0.834169     0.758204  Biso 1.000000     C
    C   1.0     0.416558     0.176958     0.977435  Biso 1.000000     C
    C   1.0     0.416559     0.676973     0.977436  Biso 1.000000     C
    C   1.0     0.916552     0.176959     0.977435  Biso 1.000000     C
    C   1.0     0.916554     0.676972     0.977436  Biso 1.000000     C
    C   1.0     0.487515     0.265463     0.864126  Biso 1.000000     C
    C   1.0     0.487516     0.765479     0.864127  Biso 1.000000     C
    C   1.0     0.987510     0.265464     0.864126  Biso 1.000000     C
    C   1.0     0.987511     0.765477     0.864127  Biso 1.000000     C
    C   1.0     0.070646     0.175810     0.969093  Biso 1.000000     C
    C   1.0     0.070647     0.675822     0.969094  Biso 1.000000     C
    C   1.0     0.570641     0.175809     0.969093  Biso 1.000000     C
    C   1.0     0.570641     0.675824     0.969094  Biso 1.000000     C
    C   1.0     0.240905     0.268625     0.874715  Biso 1.000000     C
    C   1.0     0.240903     0.768638     0.874711  Biso 1.000000     C
    C   1.0     0.740898     0.268623     0.874707  Biso 1.000000     C
    C   1.0     0.740898     0.768637     0.874708  Biso 1.000000     C
    C   1.0     0.165837     0.193965     0.741814  Biso 1.000000     C
    C   1.0     0.165839     0.693981     0.741815  Biso 1.000000     C
    C   1.0     0.665836     0.193968     0.741815  Biso 1.000000     C
    C   1.0     0.665837     0.693984     0.741817  Biso 1.000000     C
    C   1.0     0.176959     0.416575     0.477455  Biso 1.000000     C
    C   1.0     0.176959     0.916590     0.477456  Biso 1.000000     C
    C   1.0     0.676953     0.416576     0.477454  Biso 1.000000     C
    C   1.0     0.676955     0.916590     0.477454  Biso 1.000000     C
    C   1.0     0.265473     0.487538     0.364134  Biso 1.000000     C
    C   1.0     0.265472     0.987552     0.364135  Biso 1.000000     C
    C   1.0     0.765466     0.487538     0.364134  Biso 1.000000     C
    C   1.0     0.765468     0.987552     0.364133  Biso 1.000000     C
    C   1.0     0.175814     0.070656     0.469083  Biso 1.000000     C
    C   1.0     0.175816     0.570669     0.469083  Biso 1.000000     C
    C   1.0     0.675809     0.070655     0.469082  Biso 1.000000     C
    C   1.0     0.675809     0.570670     0.469082  Biso 1.000000     C
    C   1.0     0.268646     0.240938     0.374676  Biso 1.000000     C
    C   1.0     0.268646     0.740953     0.374678  Biso 1.000000     C
    C   1.0     0.768641     0.240939     0.374677  Biso 1.000000     C
    C   1.0     0.768641     0.740952     0.374676  Biso 1.000000     C
    C   1.0     0.193987     0.165883     0.241785  Biso 1.000000     C
    C   1.0     0.193988     0.665897     0.241786  Biso 1.000000     C
    C   1.0     0.693982     0.165883     0.241784  Biso 1.000000     C
    C   1.0     0.693983     0.665897     0.241785  Biso 1.000000     C
    C   1.0     0.083467     0.323086     0.022554  Biso 1.000000     C
    C   1.0     0.083468     0.823099     0.022555  Biso 1.000000     C
    C   1.0     0.583462     0.323085     0.022554  Biso 1.000000     C
    C   1.0     0.583462     0.823100     0.022554  Biso 1.000000     C
    C   1.0     0.012508     0.234584     0.135862  Biso 1.000000     C
    C   1.0     0.012510     0.734596     0.135864  Biso 1.000000     C
    C   1.0     0.512503     0.234583     0.135863  Biso 1.000000     C
    C   1.0     0.512504     0.734598     0.135863  Biso 1.000000     C
    C   1.0     0.429380     0.324235     0.030895  Biso 1.000000     C
    C   1.0     0.429380     0.824251     0.030896  Biso 1.000000     C
    C   1.0     0.929374     0.324236     0.030895  Biso 1.000000     C
    C   1.0     0.929375     0.824249     0.030896  Biso 1.000000     C
    C   1.0     0.259114     0.231413     0.125277  Biso 1.000000     C
    C   1.0     0.259116     0.731427     0.125280  Biso 1.000000     C
    C   1.0     0.759110     0.231413     0.125277  Biso 1.000000     C
    C   1.0     0.759109     0.731427     0.125276  Biso 1.000000     C
    C   1.0     0.334181     0.306069     0.258174  Biso 1.000000     C
    C   1.0     0.334181     0.806082     0.258175  Biso 1.000000     C
    C   1.0     0.834176     0.306069     0.258173  Biso 1.000000     C
    C   1.0     0.834177     0.806083     0.258174  Biso 1.000000     C
    C   1.0     0.168760     0.331240     0.750026  Biso 1.000000     C
    C   1.0     0.168759     0.831251     0.750029  Biso 1.000000     C
    C   1.0     0.668755     0.331237     0.750025  Biso 1.000000     C
    C   1.0     0.668756     0.831252     0.750028  Biso 1.000000     C
    C   1.0     0.302566     0.197430     0.749994  Biso 1.000000     C
    C   1.0     0.302567     0.697446     0.749993  Biso 1.000000     C
    C   1.0     0.802558     0.197435     0.749993  Biso 1.000000     C
    C   1.0     0.802558     0.697449     0.749993  Biso 1.000000     C
    C   1.0     0.331254     0.168794     0.249963  Biso 1.000000     C
    C   1.0     0.331256     0.668810     0.249963  Biso 1.000000     C
    C   1.0     0.831249     0.168796     0.249962  Biso 1.000000     C
    C   1.0     0.831249     0.668809     0.249963  Biso 1.000000     C
    C   1.0     0.197457     0.302607     0.249995  Biso 1.000000     C
    C   1.0     0.197457     0.802620     0.249996  Biso 1.000000     C
    C   1.0     0.697450     0.302608     0.249995  Biso 1.000000     C
    C   1.0     0.697451     0.802622     0.249995  Biso 1.000000     C
    N   1.0     0.364571     0.138992     0.537344  Biso 1.000000     N
    N   1.0     0.364573     0.639007     0.537344  Biso 1.000000     N
    N   1.0     0.864566     0.138993     0.537343  Biso 1.000000     N
    N   1.0     0.864567     0.639007     0.537343  Biso 1.000000     N
    N   1.0     0.226998     0.021276     0.721300  Biso 1.000000     N
    N   1.0     0.227001     0.521290     0.721299  Biso 1.000000     N
    N   1.0     0.726994     0.021276     0.721298  Biso 1.000000     N
    N   1.0     0.726994     0.521290     0.721298  Biso 1.000000     N
    N   1.0     0.366516     0.382013     0.552600  Biso 1.000000     N
    N   1.0     0.366516     0.882028     0.552601  Biso 1.000000     N
    N   1.0     0.866510     0.382014     0.552599  Biso 1.000000     N
    N   1.0     0.866511     0.882027     0.552600  Biso 1.000000     N
    N   1.0     0.303214     0.263303     0.690954  Biso 1.000000     N
    N   1.0     0.303215     0.763319     0.690953  Biso 1.000000     N
    N   1.0     0.803215     0.263304     0.690947  Biso 1.000000     N
    N   1.0     0.803216     0.763318     0.690949  Biso 1.000000     N
    N   1.0     0.164364     0.259881     0.682689  Biso 1.000000     N
    N   1.0     0.164365     0.759895     0.682686  Biso 1.000000     N
    N   1.0     0.664356     0.259881     0.682684  Biso 1.000000     N
    N   1.0     0.664357     0.759896     0.682684  Biso 1.000000     N
    N   1.0     0.361052     0.135430     0.962608  Biso 1.000000     N
    N   1.0     0.361053     0.635445     0.962609  Biso 1.000000     N
    N   1.0     0.861046     0.135430     0.962607  Biso 1.000000     N
    N   1.0     0.861047     0.635444     0.962608  Biso 1.000000     N
    N   1.0     0.478723     0.273005     0.778683  Biso 1.000000     N
    N   1.0     0.478723     0.773020     0.778684  Biso 1.000000     N
    N   1.0     0.978717     0.273006     0.778683  Biso 1.000000     N
    N   1.0     0.978718     0.773018     0.778684  Biso 1.000000     N
    N   1.0     0.118038     0.133516     0.947412  Biso 1.000000     N
    N   1.0     0.118039     0.633529     0.947412  Biso 1.000000     N
    N   1.0     0.618033     0.133516     0.947411  Biso 1.000000     N
    N   1.0     0.618033     0.633531     0.947412  Biso 1.000000     N
    N   1.0     0.236696     0.196787     0.809045  Biso 1.000000     N
    N   1.0     0.236698     0.696798     0.809047  Biso 1.000000     N
    N   1.0     0.736691     0.196780     0.809050  Biso 1.000000     N
    N   1.0     0.736692     0.696794     0.809051  Biso 1.000000     N
    N   1.0     0.240118     0.335631     0.817350  Biso 1.000000     N
    N   1.0     0.240119     0.835647     0.817348  Biso 1.000000     N
    N   1.0     0.740112     0.335635     0.817351  Biso 1.000000     N
    N   1.0     0.740114     0.835650     0.817351  Biso 1.000000     N
    N   1.0     0.135453     0.361053     0.462648  Biso 1.000000     N
    N   1.0     0.135453     0.861067     0.462649  Biso 1.000000     N
    N   1.0     0.635447     0.361053     0.462648  Biso 1.000000     N
    N   1.0     0.635448     0.861067     0.462648  Biso 1.000000     N
    N   1.0     0.273031     0.478765     0.278692  Biso 1.000000     N
    N   1.0     0.273030     0.978779     0.278692  Biso 1.000000     N
    N   1.0     0.773024     0.478765     0.278691  Biso 1.000000     N
    N   1.0     0.773026     0.978779     0.278691  Biso 1.000000     N
    N   1.0     0.133509     0.118031     0.447389  Biso 1.000000     N
    N   1.0     0.133511     0.618045     0.447390  Biso 1.000000     N
    N   1.0     0.633505     0.118031     0.447388  Biso 1.000000     N
    N   1.0     0.633505     0.618045     0.447389  Biso 1.000000     N
    N   1.0     0.196800     0.236737     0.309038  Biso 1.000000     N
    N   1.0     0.196801     0.736751     0.309039  Biso 1.000000     N
    N   1.0     0.696796     0.236737     0.309037  Biso 1.000000     N
    N   1.0     0.696796     0.736752     0.309037  Biso 1.000000     N
    N   1.0     0.335654     0.240153     0.317301  Biso 1.000000     N
    N   1.0     0.335655     0.740168     0.317304  Biso 1.000000     N
    N   1.0     0.835649     0.240154     0.317301  Biso 1.000000     N
    N   1.0     0.835650     0.740168     0.317301  Biso 1.000000     N
    N   1.0     0.138974     0.364613     0.037384  Biso 1.000000     N
    N   1.0     0.138975     0.864626     0.037384  Biso 1.000000     N
    N   1.0     0.638969     0.364613     0.037383  Biso 1.000000     N
    N   1.0     0.638969     0.864627     0.037384  Biso 1.000000     N
    N   1.0     0.021299     0.227044     0.221306  Biso 1.000000     N
    N   1.0     0.021300     0.727056     0.221307  Biso 1.000000     N
    N   1.0     0.521294     0.227042     0.221306  Biso 1.000000     N
    N   1.0     0.521294     0.727058     0.221307  Biso 1.000000     N
    N   1.0     0.381987     0.366528     0.052577  Biso 1.000000     N
    N   1.0     0.381988     0.866543     0.052578  Biso 1.000000     N
    N   1.0     0.881982     0.366529     0.052576  Biso 1.000000     N
    N   1.0     0.881983     0.866542     0.052577  Biso 1.000000     N
    N   1.0     0.263325     0.303253     0.190941  Biso 1.000000     N
    N   1.0     0.263325     0.803269     0.190941  Biso 1.000000     N
    N   1.0     0.763319     0.303254     0.190940  Biso 1.000000     N
    N   1.0     0.763321     0.803267     0.190941  Biso 1.000000     N
    N   1.0     0.259897     0.164403     0.182637  Biso 1.000000     N
    N   1.0     0.259899     0.664417     0.182639  Biso 1.000000     N
    N   1.0     0.759892     0.164404     0.182637  Biso 1.000000     N
    N   1.0     0.759892     0.664418     0.182637  Biso 1.000000     N
    O   1.0     0.455952     0.287483     0.433615  Biso 1.000000     O
    O   1.0     0.455953     0.787498     0.433616  Biso 1.000000     O
    O   1.0     0.955946     0.287484     0.433615  Biso 1.000000     O
    O   1.0     0.955947     0.787497     0.433615  Biso 1.000000     O
    O   1.0     0.212538     0.044059     0.066390  Biso 1.000000     O
    O   1.0     0.212540     0.544073     0.066390  Biso 1.000000     O
    O   1.0     0.712533     0.044059     0.066389  Biso 1.000000     O
    O   1.0     0.712533     0.544074     0.066389  Biso 1.000000     O
    O   1.0     0.044060     0.212545     0.566375  Biso 1.000000     O
    O   1.0     0.044061     0.712558     0.566374  Biso 1.000000     O
    O   1.0     0.544053     0.212544     0.566373  Biso 1.000000     O
    O   1.0     0.544054     0.712559     0.566374  Biso 1.000000     O
    O   1.0     0.287471     0.455970     0.933599  Biso 1.000000     O
    O   1.0     0.287471     0.955985     0.933599  Biso 1.000000     O
    O   1.0     0.787464     0.455972     0.933600  Biso 1.000000     O
    O   1.0     0.787466     0.955986     0.933600  Biso 1.000000     O
   Ca   1.0     0.424251     0.262206     0.603623  Biso 1.000000    Ca
   Ca   1.0     0.424251     0.762221     0.603624  Biso 1.000000    Ca
   Ca   1.0     0.924243     0.262207     0.603623  Biso 1.000000    Ca
   Ca   1.0     0.924244     0.762221     0.603624  Biso 1.000000    Ca
   Ca   1.0     0.237815     0.075757     0.896363  Biso 1.000000    Ca
   Ca   1.0     0.237816     0.575770     0.896363  Biso 1.000000    Ca
   Ca   1.0     0.737810     0.075757     0.896361  Biso 1.000000    Ca
   Ca   1.0     0.737810     0.575771     0.896362  Biso 1.000000    Ca
   Ca   1.0     0.075769     0.237837     0.396369  Biso 1.000000    Ca
   Ca   1.0     0.075771     0.737850     0.396369  Biso 1.000000    Ca
   Ca   1.0     0.575764     0.237836     0.396369  Biso 1.000000    Ca
   Ca   1.0     0.575764     0.737851     0.396370  Biso 1.000000    Ca
   Ca   1.0     0.262210     0.424281     0.103630  Biso 1.000000    Ca
   Ca   1.0     0.262210     0.924295     0.103631  Biso 1.000000    Ca
   Ca   1.0     0.762204     0.424282     0.103629  Biso 1.000000    Ca
   Ca   1.0     0.762205     0.924295     0.103629  Biso 1.000000    Ca
   Fe   1.0     0.250012     0.000016     0.499995  Biso 1.000000    Fe
   Fe   1.0     0.250014     0.500029     0.499995  Biso 1.000000    Fe
   Fe   1.0     0.750008     0.000015     0.499994  Biso 1.000000    Fe
   Fe   1.0     0.750008     0.500030     0.499994  Biso 1.000000    Fe
   Fe   1.0     0.000018     0.250025     0.000000  Biso 1.000000    Fe
   Fe   1.0     0.000019     0.750038     0.000002  Biso 1.000000    Fe
   Fe   1.0     0.500013     0.250024     0.000001  Biso 1.000000    Fe
   Fe   1.0     0.500013     0.750039     0.000001  Biso 1.000000    Fe
