#======================================================================

# CRYSTAL DATA

#----------------------------------------------------------------------

data_VESTA_phase_1


_pd_phase_name                         MOF
_cell_length_a                         14.17200
_cell_length_b                         15.36800
_cell_length_c                         15.00000
_cell_angle_alpha                      90.09700
_cell_angle_beta                       89.96500
_cell_angle_gamma                      89.98500
_symmetry_space_group_name_H-M         "P 1"
_symmetry_Int_Tables_number            1

loop_
_symmetry_equiv_pos_as_xyz
   "x, y, z"

loop_
   _atom_site_label
   _atom_site_occupancy
   _atom_site_fract_x
   _atom_site_fract_y
   _atom_site_fract_z
   _atom_site_adp_type
   _atom_site_B_iso_or_equiv
   _atom_site_type_symbol
    H   1.0     0.715731     0.735893     0.267976  Biso 1.000000     H
    H   1.0     0.555982     0.592034     0.503925  Biso 1.000000     H
    H   1.0     0.295075     0.865994     0.183023  Biso 1.000000     H
    H   1.0     0.783201     0.265411     0.768536  Biso 1.000000     H
    H   1.0     0.943937     0.407816     0.003642  Biso 1.000000     H
    H   1.0     0.203410     0.133548     0.683554  Biso 1.000000     H
    H   1.0     0.283752     0.235491     0.232428  Biso 1.000000     H
    H   1.0     0.443671     0.091914     0.996231  Biso 1.000000     H
    H   1.0     0.704744     0.366219     0.314404  Biso 1.000000     H
    H   1.0     0.215115     0.764589     0.732140  Biso 1.000000     H
    H   1.0     0.055458     0.907442     0.496364  Biso 1.000000     H
    H   1.0     0.794522     0.633525     0.814679  Biso 1.000000     H
    H   1.0     0.284004     0.263868     0.731886  Biso 1.000000     H
    H   1.0     0.443827     0.407905     0.496188  Biso 1.000000     H
    H   1.0     0.704667     0.133818     0.816947  Biso 1.000000     H
    H   1.0     0.216362     0.734142     0.231366  Biso 1.000000     H
    H   1.0     0.054960     0.591172     0.996232  Biso 1.000000     H
    H   1.0     0.796245     0.866344     0.316584  Biso 1.000000     H
    H   1.0     0.716131     0.764570     0.767324  Biso 1.000000     H
    H   1.0     0.556033     0.907872     0.003789  Biso 1.000000     H
    H   1.0     0.295179     0.633582     0.685604  Biso 1.000000     H
    H   1.0     0.783712     0.233574     0.268271  Biso 1.000000     H
    H   1.0     0.944539     0.091322     0.503751  Biso 1.000000     H
    H   1.0     0.203726     0.366437     0.185681  Biso 1.000000     H
    C   1.0     0.497301     0.773820     0.219886  Biso 1.000000     C
    C   1.0     0.495601     0.686264     0.246083  Biso 1.000000     C
    C   1.0     0.640194     0.735763     0.256251  Biso 1.000000     C
    C   1.0     0.426639     0.836873     0.193258  Biso 1.000000     C
    C   1.0     0.421620     0.616921     0.248506  Biso 1.000000     C
    C   1.0     0.757298     0.504400     0.458940  Biso 1.000000     C
    C   1.0     0.761334     0.515470     0.551720  Biso 1.000000     C
    C   1.0     0.626094     0.563542     0.504213  Biso 1.000000     C
    C   1.0     0.823971     0.464666     0.395017  Biso 1.000000     C
    C   1.0     0.833870     0.491438     0.618150  Biso 1.000000     C
    C   1.0     0.000000     0.226527     0.720056  Biso 1.000000     C
    C   1.0     0.000000     0.314226     0.746228  Biso 1.000000     C
    C   1.0     0.858720     0.265219     0.756694  Biso 1.000000     C
    C   1.0     0.071780     0.163125     0.693405  Biso 1.000000     C
    C   1.0     0.077330     0.383552     0.748427  Biso 1.000000     C
    C   1.0     0.742467     0.495023     0.958992  Biso 1.000000     C
    C   1.0     0.738155     0.483562     0.051690  Biso 1.000000     C
    C   1.0     0.873744     0.436134     0.004001  Biso 1.000000     C
    C   1.0     0.675965     0.534852     0.895215  Biso 1.000000     C
    C   1.0     0.665997     0.507359     0.118673  Biso 1.000000     C
    C   1.0     0.502398     0.274044     0.279107  Biso 1.000000     C
    C   1.0     0.504112     0.186371     0.253256  Biso 1.000000     C
    C   1.0     0.359356     0.235564     0.243741  Biso 1.000000     C
    C   1.0     0.573242     0.337109     0.305276  Biso 1.000000     C
    C   1.0     0.578339     0.117290     0.251169  Biso 1.000000     C
    C   1.0     0.242403     0.000000     0.040820  Biso 1.000000     C
    C   1.0     0.238279     0.015523     0.948096  Biso 1.000000     C
    C   1.0     0.373564     0.063443     0.995816  Biso 1.000000     C
    C   1.0     0.175816     0.964545     0.104662  Biso 1.000000     C
    C   1.0     0.165883     0.991352     0.881494  Biso 1.000000     C
    C   1.0    -0.003258     0.725891     0.779826  Biso 1.000000     C
    C   1.0    -0.005334     0.813299     0.753321  Biso 1.000000     C
    C   1.0     0.139539     0.764404     0.743707  Biso 1.000000     C
    C   1.0     0.925914     0.663196     0.806739  Biso 1.000000     C
    C   1.0     0.920178     0.882212     0.751216  Biso 1.000000     C
    C   1.0     0.256553    -0.004675     0.541273  Biso 1.000000     C
    C   1.0     0.260947     0.983746     0.448532  Biso 1.000000     C
    C   1.0     0.125529     0.935977     0.496075  Biso 1.000000     C
    C   1.0     0.323075     0.035236     0.605078  Biso 1.000000     C
    C   1.0     0.333044     0.007519     0.381495  Biso 1.000000     C
    C   1.0     0.502443     0.225937     0.779952  Biso 1.000000     C
    C   1.0     0.504128     0.313450     0.753697  Biso 1.000000     C
    C   1.0     0.359541     0.264022     0.743599  Biso 1.000000     C
    C   1.0     0.573153     0.162958     0.806690  Biso 1.000000     C
    C   1.0     0.578286     0.382559     0.751332  Biso 1.000000     C
    C   1.0     0.242541     0.495638     0.541118  Biso 1.000000     C
    C   1.0     0.238534     0.484551     0.448327  Biso 1.000000     C
    C   1.0     0.373729     0.436430     0.495879  Biso 1.000000     C
    C   1.0     0.175807     0.535354     0.605008  Biso 1.000000     C
    C   1.0     0.166037     0.508590     0.381859  Biso 1.000000     C
    C   1.0    -0.001714     0.773324     0.279985  Biso 1.000000     C
    C   1.0    -0.003929     0.685680     0.253772  Biso 1.000000     C
    C   1.0     0.140849     0.734445     0.243275  Biso 1.000000     C
    C   1.0     0.927951     0.836662     0.306649  Biso 1.000000     C
    C   1.0     0.921773     0.616654     0.251578  Biso 1.000000     C
    C   1.0     0.256289     0.503727     0.041062  Biso 1.000000     C
    C   1.0     0.260759     0.515282     0.948381  Biso 1.000000     C
    C   1.0     0.125137     0.562824     0.995962  Biso 1.000000     C
    C   1.0     0.322946     0.464347     0.104985  Biso 1.000000     C
    C   1.0     0.333000     0.491467     0.881458  Biso 1.000000     C
    C   1.0     0.497489     0.725787     0.720916  Biso 1.000000     C
    C   1.0     0.495724     0.813464     0.746747  Biso 1.000000     C
    C   1.0     0.640524     0.764398     0.756100  Biso 1.000000     C
    C   1.0     0.426682     0.662710     0.694785  Biso 1.000000     C
    C   1.0     0.421427     0.882464     0.748875  Biso 1.000000     C
    C   1.0     0.757295    -0.004505     0.959123  Biso 1.000000     C
    C   1.0     0.761435     0.984283     0.051829  Biso 1.000000     C
    C   1.0     0.626143     0.936334     0.004177  Biso 1.000000     C
    C   1.0     0.823843     0.035233     0.895262  Biso 1.000000     C
    C   1.0     0.833901     0.008371     0.118363  Biso 1.000000     C
    C   1.0     0.000000     0.273343     0.220713  Biso 1.000000     C
    C   1.0     0.000000     0.185871     0.246942  Biso 1.000000     C
    C   1.0     0.859286     0.234117     0.256712  Biso 1.000000     C
    C   1.0     0.072186     0.336523     0.194251  Biso 1.000000     C
    C   1.0     0.079320     0.117394     0.248862  Biso 1.000000     C
    C   1.0     0.743021     0.000000     0.458851  Biso 1.000000     C
    C   1.0     0.738579     0.016075     0.551551  Biso 1.000000     C
    C   1.0     0.874313     0.063111     0.504035  Biso 1.000000     C
    C   1.0     0.676441     0.964569     0.395037  Biso 1.000000     C
    C   1.0     0.666355     0.992555     0.618537  Biso 1.000000     C
    N   1.0     0.589452     0.803807     0.226746  Biso 1.000000     N
    N   1.0     0.586237     0.664429     0.269056  Biso 1.000000     N
    N   1.0     0.670637     0.535341     0.430137  Biso 1.000000     N
    N   1.0     0.677108     0.552289     0.579071  Biso 1.000000     N
    N   1.0     0.909152     0.196844     0.727103  Biso 1.000000     N
    N   1.0     0.912927     0.336431     0.769376  Biso 1.000000     N
    N   1.0     0.829323     0.464516     0.930135  Biso 1.000000     N
    N   1.0     0.822475     0.446967     0.078867  Biso 1.000000     N
    N   1.0     0.410161     0.303867     0.272763  Biso 1.000000     N
    N   1.0     0.413391     0.164203     0.230893  Biso 1.000000     N
    N   1.0     0.329078     0.035095     0.069750  Biso 1.000000     N
    N   1.0     0.322504     0.052357     0.920921  Biso 1.000000     N
    N   1.0     0.089087     0.696203     0.773414  Biso 1.000000     N
    N   1.0     0.085244     0.835482     0.730536  Biso 1.000000     N
    N   1.0     0.169780     0.964625     0.570070  Biso 1.000000     N
    N   1.0     0.176826     0.946823     0.421306  Biso 1.000000     N
    N   1.0     0.410283     0.195982     0.773136  Biso 1.000000     N
    N   1.0     0.413516     0.335340     0.730737  Biso 1.000000     N
    N   1.0     0.329182     0.464663     0.569945  Biso 1.000000     N
    N   1.0     0.322746     0.447689     0.421002  Biso 1.000000     N
    N   1.0     0.090598     0.802895     0.272927  Biso 1.000000     N
    N   1.0     0.086477     0.663310     0.230573  Biso 1.000000     N
    N   1.0     0.169447     0.534284     0.069855  Biso 1.000000     N
    N   1.0     0.176557     0.552068     0.921187  Biso 1.000000     N
    N   1.0     0.589764     0.696035     0.727178  Biso 1.000000     N
    N   1.0     0.586431     0.835703     0.768996  Biso 1.000000     N
    N   1.0     0.670621     0.964648     0.930227  Biso 1.000000     N
    N   1.0     0.677228     0.947448     0.079051  Biso 1.000000     N
    N   1.0     0.909351     0.302648     0.227190  Biso 1.000000     N
    N   1.0     0.913963     0.163200     0.269716  Biso 1.000000     N
    N   1.0     0.829985     0.034524     0.430077  Biso 1.000000     N
    N   1.0     0.822888     0.052648     0.578796  Biso 1.000000     N
    O   1.0     0.452676     0.910907     0.167548  Biso 1.000000     O
    O   1.0     0.337423     0.814492     0.199175  Biso 1.000000     O
    O   1.0     0.341455     0.627051     0.218349  Biso 1.000000     O
    O   1.0     0.453325     0.544200     0.284930  Biso 1.000000     O
    O   1.0     0.788213     0.432034     0.323917  Biso 1.000000     O
    O   1.0     0.912691     0.463126     0.405909  Biso 1.000000     O
    O   1.0     0.913337     0.459499     0.595258  Biso 1.000000     O
    O   1.0     0.810853     0.503874     0.699192  Biso 1.000000     O
    O   1.0     0.045440     0.089032     0.667817  Biso 1.000000     O
    O   1.0     0.161103     0.185279     0.699187  Biso 1.000000     O
    O   1.0     0.157607     0.373266     0.718513  Biso 1.000000     O
    O   1.0     0.045607     0.456766     0.784455  Biso 1.000000     O
    O   1.0     0.711704     0.566988     0.823936  Biso 1.000000     O
    O   1.0     0.587275     0.536959     0.906505  Biso 1.000000     O
    O   1.0     0.585291     0.537218     0.097106  Biso 1.000000     O
    O   1.0     0.690728     0.496810     0.199558  Biso 1.000000     O
    O   1.0     0.547413     0.410779     0.332492  Biso 1.000000     O
    O   1.0     0.662416     0.315046     0.297214  Biso 1.000000     O
    O   1.0     0.658397     0.128068     0.281395  Biso 1.000000     O
    O   1.0     0.546868     0.044208     0.215137  Biso 1.000000     O
    O   1.0     0.211652     0.931815     0.175589  Biso 1.000000     O
    O   1.0     0.087080     0.963116     0.093908  Biso 1.000000     O
    O   1.0     0.086300     0.959567     0.904077  Biso 1.000000     O
    O   1.0     0.189066     0.003440     0.800477  Biso 1.000000     O
    O   1.0     0.951562     0.590243     0.835759  Biso 1.000000     O
    O   1.0     0.836724     0.684701     0.797311  Biso 1.000000     O
    O   1.0     0.840092     0.871115     0.781378  Biso 1.000000     O
    O   1.0     0.951409     0.955346     0.715300  Biso 1.000000     O
    O   1.0     0.287558     0.067787     0.676341  Biso 1.000000     O
    O   1.0     0.411732     0.036983     0.593719  Biso 1.000000     O
    O   1.0     0.413516     0.037871     0.403160  Biso 1.000000     O
    O   1.0     0.308734     0.996446     0.300556  Biso 1.000000     O
    O   1.0     0.547157     0.088940     0.832471  Biso 1.000000     O
    O   1.0     0.662367     0.185358     0.800820  Biso 1.000000     O
    O   1.0     0.658435     0.371816     0.781306  Biso 1.000000     O
    O   1.0     0.546759     0.455525     0.715229  Biso 1.000000     O
    O   1.0     0.211455     0.567986     0.676176  Biso 1.000000     O
    O   1.0     0.087112     0.536915     0.594037  Biso 1.000000     O
    O   1.0     0.086541     0.540495     0.404698  Biso 1.000000     O
    O   1.0     0.189103     0.496194     0.300819  Biso 1.000000     O
    O   1.0     0.954471     0.910714     0.332322  Biso 1.000000     O
    O   1.0     0.838625     0.814675     0.300831  Biso 1.000000     O
    O   1.0     0.841561     0.627327     0.281561  Biso 1.000000     O
    O   1.0     0.953249     0.543462     0.215517  Biso 1.000000     O
    O   1.0     0.287599     0.432058     0.176316  Biso 1.000000     O
    O   1.0     0.411624     0.462947     0.093717  Biso 1.000000     O
    O   1.0     0.413090     0.460346     0.903291  Biso 1.000000     O
    O   1.0     0.309063     0.503205     0.800544  Biso 1.000000     O
    O   1.0     0.452547     0.589006     0.667664  Biso 1.000000     O
    O   1.0     0.337495     0.684780     0.702744  Biso 1.000000     O
    O   1.0     0.341370     0.871453     0.718721  Biso 1.000000     O
    O   1.0     0.452871     0.955599     0.784825  Biso 1.000000     O
    O   1.0     0.787913     0.067796     0.824301  Biso 1.000000     O
    O   1.0     0.912582     0.036818     0.906027  Biso 1.000000     O
    O   1.0     0.913418     0.040253     0.095735  Biso 1.000000     O
    O   1.0     0.810789     0.996058     0.199363  Biso 1.000000     O
    O   1.0     0.045861     0.409787     0.166449  Biso 1.000000     O
    O   1.0     0.161483     0.315194     0.202722  Biso 1.000000     O
    O   1.0     0.159310     0.128829     0.218602  Biso 1.000000     O
    O   1.0     0.048540     0.044118     0.284796  Biso 1.000000     O
    O   1.0     0.712051     0.931955     0.323787  Biso 1.000000     O
    O   1.0     0.587773     0.962991     0.406322  Biso 1.000000     O
    O   1.0     0.585678     0.962612     0.596938  Biso 1.000000     O
    O   1.0     0.690923     0.003396     0.699447  Biso 1.000000     O
   Zn   1.0     0.612584     0.539812     0.304482  Biso 1.000000    Zn
   Zn   1.0     0.625812     0.566461     0.707059  Biso 1.000000    Zn
   Zn   1.0     0.888752     0.462185     0.804598  Biso 1.000000    Zn
   Zn   1.0     0.872753     0.432931     0.206906  Biso 1.000000    Zn
   Zn   1.0     0.387196     0.039460     0.195596  Biso 1.000000    Zn
   Zn   1.0     0.374100     0.066539     0.792988  Biso 1.000000    Zn
   Zn   1.0     0.110776     0.960345     0.695644  Biso 1.000000    Zn
   Zn   1.0     0.127298     0.933010     0.292958  Biso 1.000000    Zn
   Zn   1.0     0.387400     0.460071     0.695576  Biso 1.000000    Zn
   Zn   1.0     0.374145     0.433434     0.292973  Biso 1.000000    Zn
   Zn   1.0     0.110761     0.537584     0.195557  Biso 1.000000    Zn
   Zn   1.0     0.126970     0.566705     0.793113  Biso 1.000000    Zn
   Zn   1.0     0.612722     0.960331     0.804392  Biso 1.000000    Zn
   Zn   1.0     0.625822     0.933356     0.207027  Biso 1.000000    Zn
   Zn   1.0     0.889239     0.037748     0.304458  Biso 1.000000    Zn
   Zn   1.0     0.872713     0.066800     0.707029  Biso 1.000000    Zn
   Zn   1.0    -0.000065     0.499987     0.499972  Biso 1.000000    Zn
   Zn   1.0     0.499015     0.499821    -0.000129  Biso 1.000000    Zn
   Zn   1.0    -0.000074    -0.000007    -0.000070  Biso 1.000000    Zn
   Zn   1.0     0.499480    -0.000018     0.499949  Biso 1.000000    Zn
