#======================================================================

# CRYSTAL DATA

#----------------------------------------------------------------------

data_VESTA_phase_1


_pd_phase_name                         MOF
_cell_length_a                         18.15100
_cell_length_b                         18.27900
_cell_length_c                         18.98900
_cell_angle_alpha                      89.99800
_cell_angle_beta                       90.00700
_cell_angle_gamma                      109.77400
_symmetry_space_group_name_H-M         "P 1"
_symmetry_Int_Tables_number            1

loop_
_symmetry_equiv_pos_as_xyz
   "x, y, z"

loop_
   _atom_site_label
   _atom_site_occupancy
   _atom_site_fract_x
   _atom_site_fract_y
   _atom_site_fract_z
   _atom_site_adp_type
   _atom_site_B_iso_or_equiv
   _atom_site_type_symbol
    O   1.0     0.459686     0.481870     0.354395  Biso 1.000000     O
    O   1.0     0.459485     0.982178     0.352130  Biso 1.000000     O
    O   1.0     0.959456     0.482142     0.352131  Biso 1.000000     O
    O   1.0     0.959679     0.981898     0.354417  Biso 1.000000     O
    O   1.0     0.394256     0.066060     0.410438  Biso 1.000000     O
    O   1.0     0.393863     0.566200     0.410632  Biso 1.000000     O
    O   1.0     0.893836     0.066194     0.410648  Biso 1.000000     O
    O   1.0     0.894259     0.566063     0.410446  Biso 1.000000     O
    O   1.0     0.335095     0.053806     0.000000  Biso 1.000000     O
    O   1.0     0.335632     0.553506     0.000000  Biso 1.000000     O
    O   1.0     0.835677     0.053649     0.000000  Biso 1.000000     O
    O   1.0     0.835383     0.553638     0.000000  Biso 1.000000     O
    O   1.0     0.356321     0.212224     0.367458  Biso 1.000000     O
    O   1.0     0.356427     0.712413     0.367253  Biso 1.000000     O
    O   1.0     0.856424     0.212410     0.367260  Biso 1.000000     O
    O   1.0     0.856229     0.712080     0.367364  Biso 1.000000     O
    O   1.0     0.405086     0.093954     0.117185  Biso 1.000000     O
    O   1.0     0.405250     0.593801     0.117251  Biso 1.000000     O
    O   1.0     0.905269     0.093784     0.117253  Biso 1.000000     O
    O   1.0     0.905248     0.593823     0.117146  Biso 1.000000     O
    O   1.0     0.280473     0.478688     0.114482  Biso 1.000000     O
    O   1.0     0.280305     0.978908     0.114502  Biso 1.000000     O
    O   1.0     0.780477     0.478694     0.114451  Biso 1.000000     O
    O   1.0     0.780485     0.978730     0.114433  Biso 1.000000     O
    O   1.0     0.379151     0.048013     0.276748  Biso 1.000000     O
    O   1.0     0.380079     0.547232     0.276997  Biso 1.000000     O
    O   1.0     0.880031     0.047195     0.277020  Biso 1.000000     O
    O   1.0     0.879146     0.548035     0.276753  Biso 1.000000     O
    O   1.0     0.262568     0.268703     0.314888  Biso 1.000000     O
    O   1.0     0.262800     0.768866     0.314744  Biso 1.000000     O
    O   1.0     0.762802     0.268862     0.314739  Biso 1.000000     O
    O   1.0     0.762463     0.768652     0.314926  Biso 1.000000     O
    O   1.0     0.309989     0.440080     0.355223  Biso 1.000000     O
    O   1.0     0.309762     0.940390     0.355049  Biso 1.000000     O
    O   1.0     0.809734     0.440394     0.355038  Biso 1.000000     O
    O   1.0     0.809979     0.940071     0.355265  Biso 1.000000     O
    O   1.0     0.324401     0.192935     0.237440  Biso 1.000000     O
    O   1.0     0.323937     0.692429     0.237356  Biso 1.000000     O
    O   1.0     0.823947     0.192421     0.237365  Biso 1.000000     O
    O   1.0     0.824183     0.693026     0.237300  Biso 1.000000     O
    O   1.0     0.407298     0.325042     0.279844  Biso 1.000000     O
    O   1.0     0.407477     0.824646     0.278886  Biso 1.000000     O
    O   1.0     0.907481     0.324638     0.278885  Biso 1.000000     O
    O   1.0     0.907182     0.825036     0.279943  Biso 1.000000     O
    O   1.0     0.275230     0.115335     0.095946  Biso 1.000000     O
    O   1.0     0.275488     0.615086     0.095600  Biso 1.000000     O
    O   1.0     0.775494     0.115105     0.095633  Biso 1.000000     O
    O   1.0     0.775402     0.615096     0.095802  Biso 1.000000     O
    O   1.0     0.449302     0.121695     0.274007  Biso 1.000000     O
    O   1.0     0.449666     0.621407     0.274301  Biso 1.000000     O
    O   1.0     0.949592     0.121390     0.274335  Biso 1.000000     O
    O   1.0     0.949276     0.621733     0.274012  Biso 1.000000     O
    O   1.0     0.287323     0.267792     0.852118  Biso 1.000000     O
    O   1.0     0.287234     0.768184     0.854414  Biso 1.000000     O
    O   1.0     0.787286     0.267716     0.852172  Biso 1.000000     O
    O   1.0     0.787291     0.767754     0.852135  Biso 1.000000     O
    O   1.0     0.352655     0.183987     0.910435  Biso 1.000000     O
    O   1.0     0.353015     0.683797     0.910633  Biso 1.000000     O
    O   1.0     0.852650     0.183909     0.910454  Biso 1.000000     O
    O   1.0     0.852621     0.683921     0.910426  Biso 1.000000     O
    O   1.0     0.411529     0.196380     0.503399  Biso 1.000000     O
    O   1.0     0.411264     0.696458     0.503411  Biso 1.000000     O
    O   1.0     0.911325     0.196498     0.503390  Biso 1.000000     O
    O   1.0     0.911497     0.696427     0.503372  Biso 1.000000     O
    O   1.0     0.390590     0.037909     0.867379  Biso 1.000000     O
    O   1.0     0.390484     0.537621     0.867257  Biso 1.000000     O
    O   1.0     0.890483     0.037691     0.867250  Biso 1.000000     O
    O   1.0     0.890527     0.537742     0.867306  Biso 1.000000     O
    O   1.0     0.341626     0.156247     0.617136  Biso 1.000000     O
    O   1.0     0.341652     0.656187     0.617250  Biso 1.000000     O
    O   1.0     0.841584     0.156250     0.617161  Biso 1.000000     O
    O   1.0     0.841641     0.656254     0.617130  Biso 1.000000     O
    O   1.0     0.466431     0.271337     0.614427  Biso 1.000000     O
    O   1.0     0.466406     0.771325     0.614460  Biso 1.000000     O
    O   1.0     0.966384     0.271335     0.614468  Biso 1.000000     O
    O   1.0     0.966444     0.771348     0.614417  Biso 1.000000     O
    O   1.0     0.367751     0.202050     0.776755  Biso 1.000000     O
    O   1.0     0.366781     0.702781     0.777005  Biso 1.000000     O
    O   1.0     0.867730     0.202029     0.776782  Biso 1.000000     O
    O   1.0     0.867708     0.702020     0.776747  Biso 1.000000     O
    O   1.0     0.484146     0.481178     0.814769  Biso 1.000000     O
    O   1.0     0.484327     0.981340     0.814923  Biso 1.000000     O
    O   1.0     0.984189     0.481201     0.814841  Biso 1.000000     O
    O   1.0     0.984110     0.981196     0.814781  Biso 1.000000     O
    O   1.0     0.437046     0.309741     0.855071  Biso 1.000000     O
    O   1.0     0.436928     0.809906     0.855236  Biso 1.000000     O
    O   1.0     0.937020     0.309708     0.855095  Biso 1.000000     O
    O   1.0     0.937018     0.809694     0.855057  Biso 1.000000     O
    O   1.0     0.422656     0.057008     0.737311  Biso 1.000000     O
    O   1.0     0.422922     0.557526     0.737351  Biso 1.000000     O
    O   1.0     0.922882     0.057429     0.737301  Biso 1.000000     O
    O   1.0     0.922872     0.557354     0.737343  Biso 1.000000     O
    O   1.0     0.339448     0.425335     0.778967  Biso 1.000000     O
    O   1.0     0.339583     0.925031     0.779887  Biso 1.000000     O
    O   1.0     0.839480     0.425279     0.779251  Biso 1.000000     O
    O   1.0     0.839416     0.925335     0.779056  Biso 1.000000     O
    O   1.0     0.471442     0.134900     0.595821  Biso 1.000000     O
    O   1.0     0.471434     0.634939     0.595635  Biso 1.000000     O
    O   1.0     0.971381     0.134937     0.595655  Biso 1.000000     O
    O   1.0     0.971459     0.634931     0.595745  Biso 1.000000     O
    O   1.0     0.297669     0.128312     0.774015  Biso 1.000000     O
    O   1.0     0.297201     0.628601     0.774292  Biso 1.000000     O
    O   1.0     0.797658     0.128281     0.774043  Biso 1.000000     O
    O   1.0     0.797629     0.628280     0.773989  Biso 1.000000     O
    O   1.0     0.037245     0.018190     0.645562  Biso 1.000000     O
    O   1.0     0.037303     0.518285     0.645602  Biso 1.000000     O
    O   1.0     0.537288     0.018294     0.645627  Biso 1.000000     O
    O   1.0     0.537215     0.518172     0.645572  Biso 1.000000     O
    O   1.0     0.103022     0.433891     0.589346  Biso 1.000000     O
    O   1.0     0.103041     0.933863     0.589326  Biso 1.000000     O
    O   1.0     0.603039     0.433847     0.589334  Biso 1.000000     O
    O   1.0     0.602997     0.933910     0.589362  Biso 1.000000     O
    O   1.0     0.161676     0.446128    -0.003509  Biso 1.000000     O
    O   1.0     0.161244     0.946470    -0.003442  Biso 1.000000     O
    O   1.0     0.661618     0.446284    -0.003500  Biso 1.000000     O
    O   1.0     0.661735     0.946314    -0.003532  Biso 1.000000     O
    O   1.0     0.140533     0.287752     0.632482  Biso 1.000000     O
    O   1.0     0.140526     0.787772     0.632684  Biso 1.000000     O
    O   1.0     0.640427     0.287610     0.632590  Biso 1.000000     O
    O   1.0     0.640529     0.787772     0.632488  Biso 1.000000     O
    O   1.0     0.091807     0.406010     0.882678  Biso 1.000000     O
    O   1.0     0.091591     0.906214     0.882720  Biso 1.000000     O
    O   1.0     0.591761     0.406034     0.882697  Biso 1.000000     O
    O   1.0     0.591829     0.906003     0.882685  Biso 1.000000     O
    O   1.0     0.216375     0.021301     0.885473  Biso 1.000000     O
    O   1.0     0.216576     0.521082     0.885454  Biso 1.000000     O
    O   1.0     0.716585     0.021094     0.885393  Biso 1.000000     O
    O   1.0     0.716536     0.521095     0.885398  Biso 1.000000     O
    O   1.0     0.116813     0.452788     0.722989  Biso 1.000000     O
    O   1.0     0.116807     0.952788     0.722966  Biso 1.000000     O
    O   1.0     0.616812     0.452795     0.722970  Biso 1.000000     O
    O   1.0     0.616768     0.952779     0.723013  Biso 1.000000     O
    O   1.0     0.234277     0.231336     0.685138  Biso 1.000000     O
    O   1.0     0.234264     0.731320     0.685163  Biso 1.000000     O
    O   1.0     0.734149     0.231245     0.685201  Biso 1.000000     O
    O   1.0     0.734279     0.731353     0.685132  Biso 1.000000     O
    O   1.0     0.186934     0.059928     0.644780  Biso 1.000000     O
    O   1.0     0.186989     0.559911     0.644781  Biso 1.000000     O
    O   1.0     0.686972     0.059890     0.644819  Biso 1.000000     O
    O   1.0     0.686903     0.559959     0.644761  Biso 1.000000     O
    O   1.0     0.172476     0.307236     0.762483  Biso 1.000000     O
    O   1.0     0.172767     0.807270     0.762682  Biso 1.000000     O
    O   1.0     0.672535     0.307346     0.762531  Biso 1.000000     O
    O   1.0     0.672483     0.807248     0.762491  Biso 1.000000     O
    O   1.0     0.089547     0.175049     0.720199  Biso 1.000000     O
    O   1.0     0.089548     0.675129     0.720498  Biso 1.000000     O
    O   1.0     0.589428     0.175099     0.720612  Biso 1.000000     O
    O   1.0     0.589552     0.675063     0.720196  Biso 1.000000     O
    O   1.0     0.221648     0.384641     0.904042  Biso 1.000000     O
    O   1.0     0.221375     0.884925     0.904302  Biso 1.000000     O
    O   1.0     0.721584     0.384665     0.904132  Biso 1.000000     O
    O   1.0     0.721654     0.884674     0.904081  Biso 1.000000     O
    O   1.0     0.047200     0.378638     0.725665  Biso 1.000000     O
    O   1.0     0.047231     0.878606     0.725645  Biso 1.000000     O
    O   1.0     0.547217     0.378628     0.725658  Biso 1.000000     O
    O   1.0     0.547128     0.878650     0.725703  Biso 1.000000     O
    O   1.0     0.209470     0.232114     0.147841  Biso 1.000000     O
    O   1.0     0.209749     0.731938     0.145565  Biso 1.000000     O
    O   1.0     0.709726     0.231893     0.145587  Biso 1.000000     O
    O   1.0     0.709536     0.731691     0.145615  Biso 1.000000     O
    O   1.0     0.144232     0.316007     0.089535  Biso 1.000000     O
    O   1.0     0.143823     0.816195     0.089341  Biso 1.000000     O
    O   1.0     0.643794     0.316122     0.089346  Biso 1.000000     O
    O   1.0     0.643876     0.816151     0.089359  Biso 1.000000     O
    O   1.0     0.085117     0.303736     0.496472  Biso 1.000000     O
    O   1.0     0.085622     0.803535     0.496564  Biso 1.000000     O
    O   1.0     0.585564     0.303550     0.496541  Biso 1.000000     O
    O   1.0     0.585161     0.803798     0.496454  Biso 1.000000     O
    O   1.0     0.106289     0.462131     0.132485  Biso 1.000000     O
    O   1.0     0.106428     0.962407     0.132730  Biso 1.000000     O
    O   1.0     0.606412     0.462286     0.132671  Biso 1.000000     O
    O   1.0     0.606293     0.962226     0.132480  Biso 1.000000     O
    O   1.0     0.155096     0.343979     0.382765  Biso 1.000000     O
    O   1.0     0.155265     0.843777     0.382737  Biso 1.000000     O
    O   1.0     0.655271     0.343762     0.382739  Biso 1.000000     O
    O   1.0     0.655026     0.844062     0.382679  Biso 1.000000     O
    O   1.0     0.030312     0.228898     0.385413  Biso 1.000000     O
    O   1.0     0.030460     0.728696     0.385504  Biso 1.000000     O
    O   1.0     0.530460     0.228688     0.385492  Biso 1.000000     O
    O   1.0     0.530286     0.728931     0.385423  Biso 1.000000     O
    O   1.0     0.129188     0.298002     0.223222  Biso 1.000000     O
    O   1.0     0.130083     0.797206     0.222966  Biso 1.000000     O
    O   1.0     0.630033     0.297149     0.222970  Biso 1.000000     O
    O   1.0     0.630120     0.797278     0.223002  Biso 1.000000     O
    O   1.0     0.012810     0.018844     0.185243  Biso 1.000000     O
    O   1.0     0.012544     0.518628     0.185087  Biso 1.000000     O
    O   1.0     0.512516     0.018629     0.185104  Biso 1.000000     O
    O   1.0     0.512704     0.518750     0.185170  Biso 1.000000     O
    O   1.0     0.059752     0.190339     0.144944  Biso 1.000000     O
    O   1.0     0.060059     0.690004     0.144751  Biso 1.000000     O
    O   1.0     0.560038     0.189934     0.144733  Biso 1.000000     O
    O   1.0     0.559854     0.690168     0.144811  Biso 1.000000     O
    O   1.0     0.074432     0.442921     0.262537  Biso 1.000000     O
    O   1.0     0.073931     0.942407     0.262625  Biso 1.000000     O
    O   1.0     0.574137     0.442719     0.262666  Biso 1.000000     O
    O   1.0     0.574402     0.942855     0.262497  Biso 1.000000     O
    O   1.0     0.157502     0.074599     0.221104  Biso 1.000000     O
    O   1.0     0.157277     0.575013     0.219995  Biso 1.000000     O
    O   1.0     0.657260     0.074991     0.220078  Biso 1.000000     O
    O   1.0     0.657438     0.574859     0.220586  Biso 1.000000     O
    O   1.0     0.025242     0.365339     0.404031  Biso 1.000000     O
    O   1.0     0.025500     0.865101     0.404351  Biso 1.000000     O
    O   1.0     0.525510     0.365114     0.404282  Biso 1.000000     O
    O   1.0     0.525189     0.865362     0.404052  Biso 1.000000     O
    O   1.0     0.199330     0.371693     0.225935  Biso 1.000000     O
    O   1.0     0.199618     0.871423     0.225661  Biso 1.000000     O
    O   1.0     0.699565     0.371369     0.225652  Biso 1.000000     O
    O   1.0     0.699755     0.871409     0.225708  Biso 1.000000     O
    P   1.0     0.324368     0.061043     0.082755  Biso 1.000000     P
    P   1.0     0.324629     0.560788     0.082678  Biso 1.000000     P
    P   1.0     0.824651     0.060831     0.082666  Biso 1.000000     P
    P   1.0     0.824558     0.560847     0.082693  Biso 1.000000     P
    P   1.0     0.338508     0.250195     0.300321  Biso 1.000000     P
    P   1.0     0.338544     0.750095     0.299966  Biso 1.000000     P
    P   1.0     0.838550     0.250093     0.299971  Biso 1.000000     P
    P   1.0     0.838386     0.750153     0.300299  Biso 1.000000     P
    P   1.0     0.387441     0.507057     0.351716  Biso 1.000000     P
    P   1.0     0.387215     0.000000     0.351012  Biso 1.000000     P
    P   1.0     0.887203     0.507315     0.351013  Biso 1.000000     P
    P   1.0     0.887418     0.000000     0.351744  Biso 1.000000     P
    P   1.0     0.422321     0.189178     0.582697  Biso 1.000000     P
    P   1.0     0.422262     0.689206     0.582676  Biso 1.000000     P
    P   1.0     0.922237     0.189224     0.582663  Biso 1.000000     P
    P   1.0     0.922320     0.689203     0.582666  Biso 1.000000     P
    P   1.0     0.408372     0.499909     0.799999  Biso 1.000000     P
    P   1.0     0.408419     0.999873     0.800292  Biso 1.000000     P
    P   1.0     0.908392     0.499909     0.800107  Biso 1.000000     P
    P   1.0     0.908340     0.999933     0.800013  Biso 1.000000     P
    P   1.0     0.359651     0.242736     0.851013  Biso 1.000000     P
    P   1.0     0.359453     0.742956     0.851725  Biso 1.000000     P
    P   1.0     0.859630     0.242682     0.851051  Biso 1.000000     P
    P   1.0     0.859616     0.742689     0.851014  Biso 1.000000     P
    P   1.0     0.172489     0.438925     0.917180  Biso 1.000000     P
    P   1.0     0.172229     0.939214     0.917270  Biso 1.000000     P
    P   1.0     0.672443     0.438982     0.917200  Biso 1.000000     P
    P   1.0     0.672514     0.938985     0.917169  Biso 1.000000     P
    P   1.0     0.158346     0.249865     0.699671  Biso 1.000000     P
    P   1.0     0.158397     0.749893     0.699851  Biso 1.000000     P
    P   1.0     0.658263     0.249828     0.699828  Biso 1.000000     P
    P   1.0     0.658351     0.749884     0.699675  Biso 1.000000     P
    P   1.0     0.109468    -0.007033     0.648252  Biso 1.000000     P
    P   1.0     0.109488     0.493007     0.648284  Biso 1.000000     P
    P   1.0     0.609460    -0.007001     0.648312  Biso 1.000000     P
    P   1.0     0.609457     0.492976     0.648254  Biso 1.000000     P
    P   1.0     0.074385     0.311038     0.417184  Biso 1.000000     P
    P   1.0     0.074637     0.810798     0.417297  Biso 1.000000     P
    P   1.0     0.574624     0.310801     0.417269  Biso 1.000000     P
    P   1.0     0.574357     0.811079     0.417173  Biso 1.000000     P
    P   1.0     0.088553     0.000062     0.200016  Biso 1.000000     P
    P   1.0     0.088498     0.500132     0.199614  Biso 1.000000     P
    P   1.0     0.588473     0.000137     0.199634  Biso 1.000000     P
    P   1.0     0.588553     0.500139     0.199865  Biso 1.000000     P
    P   1.0     0.137209     0.257269     0.148972  Biso 1.000000     P
    P   1.0     0.137454     0.757052     0.148248  Biso 1.000000     P
    P   1.0     0.637422     0.256990     0.148256  Biso 1.000000     P
    P   1.0     0.637393     0.757029     0.148304  Biso 1.000000     P
   Ga   1.0     0.427562     0.174219     0.410415  Biso 1.000000    Ga
   Ga   1.0     0.427464     0.674342     0.410438  Biso 1.000000    Ga
   Ga   1.0     0.927472     0.174339     0.410424  Biso 1.000000    Ga
   Ga   1.0     0.927540     0.674221     0.410396  Biso 1.000000    Ga
   Ga   1.0     0.481560     0.105462     0.183449  Biso 1.000000    Ga
   Ga   1.0     0.481655     0.605509     0.183563  Biso 1.000000    Ga
   Ga   1.0     0.981640     0.105526     0.183613  Biso 1.000000    Ga
   Ga   1.0     0.981623     0.605481     0.183493  Biso 1.000000    Ga
   Ga   1.0     0.240923     0.149837     0.177224  Biso 1.000000    Ga
   Ga   1.0     0.240970     0.649989     0.176454  Biso 1.000000    Ga
   Ga   1.0     0.740954     0.149965     0.176503  Biso 1.000000    Ga
   Ga   1.0     0.740963     0.649951     0.176768  Biso 1.000000    Ga
   Ga   1.0     0.319285     0.075829     0.910339  Biso 1.000000    Ga
   Ga   1.0     0.319421     0.575655     0.910431  Biso 1.000000    Ga
   Ga   1.0     0.819405     0.075745     0.910398  Biso 1.000000    Ga
   Ga   1.0     0.819363     0.575761     0.910368  Biso 1.000000    Ga
   Ga   1.0     0.265265     0.144533     0.683494  Biso 1.000000    Ga
   Ga   1.0     0.265240     0.644525     0.683537  Biso 1.000000    Ga
   Ga   1.0     0.765250     0.144520     0.683542  Biso 1.000000    Ga
   Ga   1.0     0.765261     0.644545     0.683475  Biso 1.000000    Ga
   Ga   1.0     0.005917     0.100041     0.676533  Biso 1.000000    Ga
   Ga   1.0     0.005974     0.600099     0.676681  Biso 1.000000    Ga
   Ga   1.0     0.505888     0.100044     0.676787  Biso 1.000000    Ga
   Ga   1.0     0.505929     0.600048     0.676530  Biso 1.000000    Ga
   Ga   1.0     0.069296     0.325758     0.589547  Biso 1.000000    Ga
   Ga   1.0     0.069380     0.825716     0.589513  Biso 1.000000    Ga
   Ga   1.0     0.569347     0.325699     0.589497  Biso 1.000000    Ga
   Ga   1.0     0.569301     0.825779     0.589538  Biso 1.000000    Ga
   Ga   1.0     0.015274     0.394450     0.816463  Biso 1.000000    Ga
   Ga   1.0     0.015206     0.894468     0.816379  Biso 1.000000    Ga
   Ga   1.0     0.515282     0.394470     0.816434  Biso 1.000000    Ga
   Ga   1.0     0.515263     0.894497     0.816519  Biso 1.000000    Ga
   Ga   1.0     0.255956     0.350142     0.822771  Biso 1.000000    Ga
   Ga   1.0     0.255877     0.850022     0.823420  Biso 1.000000    Ga
   Ga   1.0     0.755933     0.350112     0.822923  Biso 1.000000    Ga
   Ga   1.0     0.755938     0.850132     0.822822  Biso 1.000000    Ga
   Ga   1.0     0.177578     0.424156     0.089581  Biso 1.000000    Ga
   Ga   1.0     0.177457     0.924343     0.089532  Biso 1.000000    Ga
   Ga   1.0     0.677551     0.424270     0.089579  Biso 1.000000    Ga
   Ga   1.0     0.677569     0.924282     0.089547  Biso 1.000000    Ga
   Ga   1.0     0.231585     0.355516     0.316528  Biso 1.000000    Ga
   Ga   1.0     0.231650     0.855556     0.316399  Biso 1.000000    Ga
   Ga   1.0     0.731642     0.355543     0.316391  Biso 1.000000    Ga
   Ga   1.0     0.731593     0.855528     0.316537  Biso 1.000000    Ga
   Ga   1.0     0.491011     0.400017     0.323393  Biso 1.000000    Ga
   Ga   1.0     0.490912     0.899881     0.322756  Biso 1.000000    Ga
   Ga   1.0     0.990924     0.399866     0.322753  Biso 1.000000    Ga
   Ga   1.0     0.990930     0.899982     0.323492  Biso 1.000000    Ga
