#======================================================================

# CRYSTAL DATA

#----------------------------------------------------------------------

data_VESTA_phase_1


_pd_phase_name                         MOF
_cell_length_a                         20.28600
_cell_length_b                         12.82600
_cell_length_c                         12.81600
_cell_angle_alpha                      81.09600
_cell_angle_beta                       66.78900
_cell_angle_gamma                      66.76300
_symmetry_space_group_name_H-M         "P 1"
_symmetry_Int_Tables_number            1

loop_
_symmetry_equiv_pos_as_xyz
   "x, y, z"

loop_
   _atom_site_label
   _atom_site_occupancy
   _atom_site_fract_x
   _atom_site_fract_y
   _atom_site_fract_z
   _atom_site_adp_type
   _atom_site_B_iso_or_equiv
   _atom_site_type_symbol
    H   1.0     0.192352     0.381837     0.258300  Biso 1.000000     H
    H   1.0     0.692355     0.381840     0.258300  Biso 1.000000     H
    H   1.0     0.239445     0.417741     0.049695  Biso 1.000000     H
    H   1.0     0.739448     0.417743     0.049694  Biso 1.000000     H
    H   1.0     0.013396     0.615029     0.741921  Biso 1.000000     H
    H   1.0     0.513400     0.615023     0.741921  Biso 1.000000     H
    H   1.0     0.473753     0.579880     0.950631  Biso 1.000000     H
    H   1.0     0.973756     0.579872     0.950629  Biso 1.000000     H
    H   1.0     0.321217     0.741990     0.383249  Biso 1.000000     H
    H   1.0     0.821222     0.741993     0.383243  Biso 1.000000     H
    H   1.0     0.264182     0.950692     0.418522  Biso 1.000000     H
    H   1.0     0.764187     0.950695     0.418521  Biso 1.000000     H
    H   1.0     0.384005     0.258138     0.615861  Biso 1.000000     H
    H   1.0     0.884009     0.258132     0.615856  Biso 1.000000     H
    H   1.0     0.448739     0.049660     0.580191  Biso 1.000000     H
    H   1.0     0.948740     0.049651     0.580204  Biso 1.000000     H
    H   1.0     0.307622     0.618181     0.741678  Biso 1.000000     H
    H   1.0     0.807620     0.618189     0.741679  Biso 1.000000     H
    H   1.0     0.260529     0.582271     0.950281  Biso 1.000000     H
    H   1.0     0.760531     0.582268     0.950280  Biso 1.000000     H
    H   1.0     0.486575     0.385002     0.258064  Biso 1.000000     H
    H   1.0     0.986577     0.384993     0.258064  Biso 1.000000     H
    H   1.0     0.026219     0.420131     0.049352  Biso 1.000000     H
    H   1.0     0.526221     0.420139     0.049352  Biso 1.000000     H
    H   1.0     0.178753     0.258017     0.616746  Biso 1.000000     H
    H   1.0     0.678758     0.258012     0.616741  Biso 1.000000     H
    H   1.0     0.235791     0.049319     0.581452  Biso 1.000000     H
    H   1.0     0.735792     0.049310     0.581466  Biso 1.000000     H
    H   1.0     0.115971     0.741869     0.384112  Biso 1.000000     H
    H   1.0     0.615972     0.741873     0.384121  Biso 1.000000     H
    H   1.0     0.051239     0.950352     0.419762  Biso 1.000000     H
    H   1.0     0.551239     0.950355     0.419777  Biso 1.000000     H
    C   1.0     0.157848     0.389124     0.208625  Biso 1.000000     C
    C   1.0     0.657850     0.389129     0.208625  Biso 1.000000     C
    C   1.0     0.183606     0.409576     0.092560  Biso 1.000000     C
    C   1.0     0.683613     0.409566     0.092557  Biso 1.000000     C
    C   1.0     0.457338     0.609187     0.791475  Biso 1.000000     C
    C   1.0     0.957341     0.609176     0.791472  Biso 1.000000     C
    C   1.0     0.435118     0.588970     0.907590  Biso 1.000000     C
    C   1.0     0.935118     0.588973     0.907589  Biso 1.000000     C
    C   1.0     0.262051     0.791560     0.389989  Biso 1.000000     C
    C   1.0     0.762053     0.791563     0.389993  Biso 1.000000     C
    C   1.0     0.229857     0.907635     0.410235  Biso 1.000000     C
    C   1.0     0.729861     0.907638     0.410233  Biso 1.000000     C
    C   1.0     0.352849     0.208537     0.609458  Biso 1.000000     C
    C   1.0     0.852849     0.208528     0.609473  Biso 1.000000     C
    C   1.0     0.388679     0.092484     0.589086  Biso 1.000000     C
    C   1.0     0.888681     0.092476     0.589092  Biso 1.000000     C
    C   1.0     0.342129     0.610885     0.791352  Biso 1.000000     C
    C   1.0     0.842132     0.610876     0.791349  Biso 1.000000     C
    C   1.0     0.316366     0.590443     0.907420  Biso 1.000000     C
    C   1.0     0.816365     0.590448     0.907419  Biso 1.000000     C
    C   1.0     0.042638     0.390821     0.208506  Biso 1.000000     C
    C   1.0     0.542639     0.390830     0.208507  Biso 1.000000     C
    C   1.0     0.064853     0.411047     0.092393  Biso 1.000000     C
    C   1.0     0.564859     0.411040     0.092391  Biso 1.000000     C
    C   1.0     0.237924     0.208450     0.609983  Biso 1.000000     C
    C   1.0     0.737924     0.208441     0.609998  Biso 1.000000     C
    C   1.0     0.270117     0.092374     0.589744  Biso 1.000000     C
    C   1.0     0.770118     0.092367     0.589749  Biso 1.000000     C
    C   1.0     0.147129     0.791474     0.390501  Biso 1.000000     C
    C   1.0     0.647129     0.791477     0.390514  Biso 1.000000     C
    C   1.0     0.111297     0.907526     0.410880  Biso 1.000000     C
    C   1.0     0.611299     0.907530     0.410887  Biso 1.000000     C
    C   1.0     0.136822     0.419975     0.032500  Biso 1.000000     C
    C   1.0     0.636824     0.419980     0.032500  Biso 1.000000     C
    C   1.0     0.163675     0.438988     0.906102  Biso 1.000000     C
    C   1.0     0.663674     0.439004     0.906103  Biso 1.000000     C
    C   1.0     0.363148     0.580046     0.967481  Biso 1.000000     C
    C   1.0     0.863145     0.580060     0.967483  Biso 1.000000     C
    C   1.0     0.336299     0.561017     0.093878  Biso 1.000000     C
    C   1.0     0.836301     0.561012     0.093876  Biso 1.000000     C
    C   1.0     0.153204     0.967537     0.420252  Biso 1.000000     C
    C   1.0     0.653208     0.967541     0.420253  Biso 1.000000     C
    C   1.0     0.116955     0.093869     0.439298  Biso 1.000000     C
    C   1.0     0.616959     0.093872     0.439305  Biso 1.000000     C
    C   1.0     0.346769     0.032470     0.579730  Biso 1.000000     C
    C   1.0     0.846773     0.032464     0.579724  Biso 1.000000     C
    C   1.0     0.383021     0.906141     0.560665  Biso 1.000000     C
    C   1.0     0.883021     0.906132     0.560679  Biso 1.000000     C
    N   1.0     0.088630     0.378963     0.265935  Biso 1.000000     N
    N   1.0     0.588628     0.378984     0.265938  Biso 1.000000     N
    N   1.0     0.411348     0.621039     0.734043  Biso 1.000000     N
    N   1.0     0.911353     0.621024     0.734039  Biso 1.000000     N
    N   1.0     0.221631     0.734149     0.379267  Biso 1.000000     N
    N   1.0     0.721631     0.734152     0.379278  Biso 1.000000     N
    N   1.0     0.278346     0.265861     0.620699  Biso 1.000000     N
    N   1.0     0.778346     0.265852     0.620715  Biso 1.000000     N
    O   1.0     0.229696     0.446785     0.855102  Biso 1.000000     O
    O   1.0     0.729704     0.446769     0.855099  Biso 1.000000     O
    O   1.0     0.427612     0.408871     0.551075  Biso 1.000000     O
    O   1.0     0.927613     0.408869     0.551074  Biso 1.000000     O
    O   1.0     0.380019     0.555239     0.145527  Biso 1.000000     O
    O   1.0     0.880019     0.555243     0.145527  Biso 1.000000     O
    O   1.0     0.407496     0.591274     0.448773  Biso 1.000000     O
    O   1.0     0.907497     0.591271     0.448769  Biso 1.000000     O
    O   1.0     0.158020     0.145482     0.444198  Biso 1.000000     O
    O   1.0     0.658026     0.145486     0.444194  Biso 1.000000     O
    O   1.0     0.203021     0.448851     0.408730  Biso 1.000000     O
    O   1.0     0.703022     0.448854     0.408729  Biso 1.000000     O
    O   1.0     0.453135     0.855134     0.551997  Biso 1.000000     O
    O   1.0     0.953138     0.855127     0.551999  Biso 1.000000     O
    O   1.0     0.131997     0.551209     0.591338  Biso 1.000000     O
    O   1.0     0.632000     0.551209     0.591339  Biso 1.000000     O
    O   1.0     0.270272     0.553241     0.144879  Biso 1.000000     O
    O   1.0     0.770268     0.553258     0.144881  Biso 1.000000     O
    O   1.0     0.072370     0.591129     0.448897  Biso 1.000000     O
    O   1.0     0.572371     0.591130     0.448900  Biso 1.000000     O
    O   1.0     0.119954     0.444767     0.854453  Biso 1.000000     O
    O   1.0     0.619960     0.444759     0.854451  Biso 1.000000     O
    O   1.0     0.092483     0.408729     0.551204  Biso 1.000000     O
    O   1.0     0.592486     0.408729     0.551205  Biso 1.000000     O
    O   1.0     0.341955     0.854524     0.555778  Biso 1.000000     O
    O   1.0     0.841957     0.854518     0.555779  Biso 1.000000     O
    O   1.0     0.296961     0.551148     0.591251  Biso 1.000000     O
    O   1.0     0.796962     0.551147     0.591250  Biso 1.000000     O
    O   1.0     0.046840     0.144875     0.447974  Biso 1.000000     O
    O   1.0     0.546844     0.144879     0.447977  Biso 1.000000     O
    O   1.0     0.367980     0.448796     0.408641  Biso 1.000000     O
    O   1.0     0.867979     0.448793     0.408641  Biso 1.000000     O
    S   1.0     0.375017     0.500025     0.499935  Biso 1.000000     S
    S   1.0     0.875018     0.500022     0.499933  Biso 1.000000     S
    S   1.0     0.124963     0.499977     0.500042  Biso 1.000000     S
    S   1.0     0.624965     0.499978     0.500043  Biso 1.000000     S
   Cd   1.0     0.056502     0.322428     0.451055  Biso 1.000000    Cd
   Cd   1.0     0.556505     0.322433     0.451054  Biso 1.000000    Cd
   Cd   1.0     0.443477     0.677577     0.548922  Biso 1.000000    Cd
   Cd   1.0     0.943480     0.677570     0.548919  Biso 1.000000    Cd
   Cd   1.0     0.281916     0.549041     0.322566  Biso 1.000000    Cd
   Cd   1.0     0.781915     0.549046     0.322568  Biso 1.000000    Cd
   Cd   1.0     0.218060     0.450967     0.677414  Biso 1.000000    Cd
   Cd   1.0     0.718063     0.450962     0.677413  Biso 1.000000    Cd
