#======================================================================

# CRYSTAL DATA

#----------------------------------------------------------------------

data_VESTA_phase_1


_pd_phase_name                         MOF
_cell_length_a                         13.98600
_cell_length_b                         14.39900
_cell_length_c                         14.18100
_cell_angle_alpha                      106.25000
_cell_angle_beta                       110.72700
_cell_angle_gamma                      107.78600
_symmetry_space_group_name_H-M         "P 1"
_symmetry_Int_Tables_number            1

loop_
_symmetry_equiv_pos_as_xyz
   "x, y, z"

loop_
   _atom_site_label
   _atom_site_occupancy
   _atom_site_fract_x
   _atom_site_fract_y
   _atom_site_fract_z
   _atom_site_adp_type
   _atom_site_B_iso_or_equiv
   _atom_site_type_symbol
    H   1.0     0.875652    -0.021774     0.770357  Biso 1.000000     H
    H   1.0     0.573164     0.628916     0.111898  Biso 1.000000     H
    H   1.0     0.229324     0.599999     0.298642  Biso 1.000000     H
    H   1.0     0.138765     0.653184     0.763714  Biso 1.000000     H
    H   1.0     0.936557     0.754127     0.720299  Biso 1.000000     H
    H   1.0     0.398707     0.410762     0.234515  Biso 1.000000     H
    H   1.0     0.861093     0.346643     0.236096  Biso 1.000000     H
    H   1.0     0.458019     0.980964     0.863459  Biso 1.000000     H
    H   1.0     0.586275     0.869643     0.061574  Biso 1.000000     H
    H   1.0     0.632398     0.237730     0.703486  Biso 1.000000     H
    H   1.0     0.426720     0.370942     0.887940  Biso 1.000000     H
    H   1.0     0.786290     0.723975     0.937289  Biso 1.000000     H
    H   1.0     0.841851     0.453796     0.898150  Biso 1.000000     H
    H   1.0     0.551631     0.294538     0.974582  Biso 1.000000     H
    H   1.0     0.745937     0.614276     0.558791  Biso 1.000000     H
    H   1.0     0.777227     0.490978     0.002593  Biso 1.000000     H
    H   1.0     0.063313     0.245709     0.279538  Biso 1.000000     H
    H   1.0     0.367513     0.762147     0.296377  Biso 1.000000     H
    H   1.0     0.541885     0.018903     0.136415  Biso 1.000000     H
    H   1.0     0.213596     0.275875     0.062561  Biso 1.000000     H
    H   1.0     0.548379     0.853844     0.838721  Biso 1.000000     H
    H   1.0     0.803606     0.419630     0.545589  Biso 1.000000     H
    H   1.0     0.881950     0.348695     0.070693  Biso 1.000000     H
    H   1.0     0.731367     0.012194     0.994603  Biso 1.000000     H
    H   1.0     0.073148     0.654657     0.055296  Biso 1.000000     H
    H   1.0     0.955766     0.230437     0.611317  Biso 1.000000     H
    H   1.0     0.253927     0.385559     0.441049  Biso 1.000000     H
    H   1.0     0.926807     0.345209     0.944584  Biso 1.000000     H
    H   1.0     0.058722     0.931950     0.689083  Biso 1.000000     H
    H   1.0     0.222721     0.508932     0.997278  Biso 1.000000     H
    H   1.0     0.884038     0.252558     0.749657  Biso 1.000000     H
    H   1.0     0.684998     0.823856     0.622007  Biso 1.000000     H
    H   1.0     0.314870     0.175979     0.377834  Biso 1.000000     H
    H   1.0     0.117962     0.651159     0.929147  Biso 1.000000     H
    H   1.0     0.279936     0.476869     0.849254  Biso 1.000000     H
    H   1.0     0.586143     0.450857     0.366196  Biso 1.000000     H
    H   1.0     0.115919     0.747318     0.250238  Biso 1.000000     H
    H   1.0     0.770572     0.399859     0.701265  Biso 1.000000     H
    H   1.0     0.451490     0.145991     0.161121  Biso 1.000000     H
    H   1.0     0.044171     0.769452     0.388563  Biso 1.000000     H
    H   1.0     0.941184     0.067925     0.310779  Biso 1.000000     H
    H   1.0     0.124215     0.000000     0.229483  Biso 1.000000     H
    H   1.0     0.601173     0.589089     0.765341  Biso 1.000000     H
    H   1.0     0.448267     0.705338     0.025271  Biso 1.000000     H
    H   1.0     0.268503     0.987640     0.005237  Biso 1.000000     H
    H   1.0     0.719992     0.523053     0.150600  Biso 1.000000     H
    H   1.0     0.217823     0.570631     0.643935  Biso 1.000000     H
    H   1.0     0.782044     0.429253     0.355913  Biso 1.000000     H
    H   1.0     0.196237     0.580202     0.454286  Biso 1.000000     H
    H   1.0     0.158095     0.546068     0.101758  Biso 1.000000     H
    H   1.0     0.413737     0.549005     0.633665  Biso 1.000000     H
    H   1.0     0.413631     0.130226     0.938296  Biso 1.000000     H
    C   1.0     0.128695     0.531719     0.367693  Biso 1.000000     C
    C   1.0     0.926710     0.246591     0.412860  Biso 1.000000     C
    C   1.0     0.459643     0.348646     0.747151  Biso 1.000000     C
    C   1.0     0.678122     0.626805     0.759411  Biso 1.000000     C
    C   1.0     0.619553     0.605309     0.299800  Biso 1.000000     C
    C   1.0     0.781291     0.702187     0.855055  Biso 1.000000     C
    C   1.0     0.973003     0.303441     0.775644  Biso 1.000000     C
    C   1.0     0.983430     0.832910     0.937110  Biso 1.000000     C
    C   1.0     0.045579     0.596430     0.846047  Biso 1.000000     C
    C   1.0     0.681015     0.216585     0.302987  Biso 1.000000     C
    C   1.0     0.458737     0.700745     0.103327  Biso 1.000000     C
    C   1.0     0.819516     0.007951     0.895595  Biso 1.000000     C
    C   1.0     0.653469     0.945990     0.132048  Biso 1.000000     C
    C   1.0     0.074341     0.905462     0.016066  Biso 1.000000     C
    C   1.0     0.724669     0.971810     0.913634  Biso 1.000000     C
    C   1.0     0.598082     0.261621     0.843213  Biso 1.000000     C
    C   1.0     0.806781     0.572029     0.168796  Biso 1.000000     C
    C   1.0     0.193154     0.427883     0.831067  Biso 1.000000     C
    C   1.0     0.401825     0.738259     0.156647  Biso 1.000000     C
    C   1.0     0.180355     0.991883     0.104248  Biso 1.000000     C
    C   1.0     0.954547     0.612865     0.115233  Biso 1.000000     C
    C   1.0     0.012215     0.290675     0.698082  Biso 1.000000     C
    C   1.0     0.480295     0.687585     0.303964  Biso 1.000000     C
    C   1.0     0.942322     0.400304     0.246346  Biso 1.000000     C
    C   1.0     0.766334     0.960857     0.181598  Biso 1.000000     C
    C   1.0     0.134752     0.280576     0.265313  Biso 1.000000     C
    C   1.0     0.991649     0.418752     0.954557  Biso 1.000000     C
    C   1.0     0.699032     0.868105     0.705673  Biso 1.000000     C
    C   1.0     0.159807     0.445577     0.913253  Biso 1.000000     C
    C   1.0     0.954318     0.403420     0.153802  Biso 1.000000     C
    C   1.0     0.240691     0.357690     0.355689  Biso 1.000000     C
    C   1.0     0.169821     0.857042     0.685449  Biso 1.000000     C
    C   1.0     0.318888     0.783287     0.696867  Biso 1.000000     C
    C   1.0     0.380341     0.394551     0.700042  Biso 1.000000     C
    C   1.0     0.488206     0.678781     0.409670  Biso 1.000000     C
    C   1.0     0.146228     0.541281     0.279563  Biso 1.000000     C
    C   1.0     0.300833     0.131726     0.294168  Biso 1.000000     C
    C   1.0     0.804743     0.953657     0.788198  Biso 1.000000     C
    C   1.0     0.527420     0.657369     0.151965  Biso 1.000000     C
    C   1.0     0.057546     0.599530     0.753486  Biso 1.000000     C
    C   1.0     0.016447     0.166926     0.062728  Biso 1.000000     C
    C   1.0     0.853662     0.458571     0.720323  Biso 1.000000     C
    C   1.0     0.541162     0.299128     0.896526  Biso 1.000000     C
    C   1.0     0.622683     0.885103     0.826963  Biso 1.000000     C
    C   1.0     0.943478     0.520723     0.830532  Biso 1.000000     C
    C   1.0     0.008302     0.581122     0.045330  Biso 1.000000     C
    C   1.0     0.218589     0.297658     0.144792  Biso 1.000000     C
    C   1.0     0.925533     0.094373     0.983776  Biso 1.000000     C
    C   1.0     0.877655     0.751543     0.843346  Biso 1.000000     C
    C   1.0     0.233572     0.039017     0.818268  Biso 1.000000     C
    C   1.0     0.830084     0.142830     0.314416  Biso 1.000000     C
    C   1.0     0.865118     0.719261     0.734525  Biso 1.000000     C
    C   1.0     0.588528     0.268277     0.744454  Biso 1.000000     C
    C   1.0     0.321754     0.373041     0.240439  Biso 1.000000     C
    C   1.0     0.511672     0.321060     0.590162  Biso 1.000000     C
    C   1.0     0.472470     0.342494     0.847879  Biso 1.000000     C
    C   1.0     0.370053     0.969397     0.825444  Biso 1.000000     C
    C   1.0     0.283142     0.870211     0.734421  Biso 1.000000     C
    C   1.0     0.759176     0.642148     0.644152  Biso 1.000000     C
    C   1.0     0.195124     0.046174     0.211644  Biso 1.000000     C
    C   1.0     0.045407     0.387024     0.884651  Biso 1.000000     C
    C   1.0     0.377184     0.114730     0.172876  Biso 1.000000     C
    C   1.0     0.932918     0.493877     0.922464  Biso 1.000000     C
    C   1.0     0.411377     0.731597     0.255402  Biso 1.000000     C
    C   1.0     0.145860     0.942115     0.727985  Biso 1.000000     C
    C   1.0     0.026948     0.696445     0.224242  Biso 1.000000     C
    C   1.0     0.122220     0.248295     0.156494  Biso 1.000000     C
    C   1.0     0.519600     0.312276     0.695882  Biso 1.000000     C
    C   1.0     0.716762     0.129660     0.265446  Biso 1.000000     C
    C   1.0     0.275201     0.028023     0.086207  Biso 1.000000     C
    C   1.0     0.840139     0.554328     0.086620  Biso 1.000000     C
    C   1.0     0.871165     0.468118     0.632174  Biso 1.000000     C
    C   1.0     0.056431     0.479134     0.169343  Biso 1.000000     C
    C   1.0     0.073200     0.753277     0.587000  Biso 1.000000     C
    C   1.0     0.540247     0.651212     0.252691  Biso 1.000000     C
    C   1.0     0.346436     0.053880     0.867822  Biso 1.000000     C
    C   1.0     0.629851     0.030472     0.174427  Biso 1.000000     C
    C   1.0     0.854046     0.057759     0.271879  Biso 1.000000     C
    C   1.0     0.987726     0.709219     0.301796  Biso 1.000000     C
    C   1.0     0.067023     0.505991     0.077427  Biso 1.000000     C
    N   1.0     0.880308     0.645021     0.276275  Biso 1.000000     N
    N   1.0     0.330822     0.785979     0.107666  Biso 1.000000     N
    N   1.0     0.119623     0.354886     0.723592  Biso 1.000000     N
    N   1.0     0.207115     0.127226     0.862487  Biso 1.000000     N
    N   1.0     0.027096     0.465438     0.352381  Biso 1.000000     N
    N   1.0     0.666314     0.597178     0.655251  Biso 1.000000     N
    N   1.0     0.333557     0.402663     0.344596  Biso 1.000000     N
    N   1.0     0.792800     0.872657     0.137380  Biso 1.000000     N
    N   1.0     0.608694     0.833627     0.723794  Biso 1.000000     N
    N   1.0     0.391169     0.166202     0.276043  Biso 1.000000     N
    N   1.0     0.669094     0.213914     0.892206  Biso 1.000000     N
    N   1.0     0.972754     0.534390     0.647461  Biso 1.000000     N
    O   1.0     0.722263     0.676863     0.373998  Biso 1.000000     O
    O   1.0     0.579708     0.432467     0.426119  Biso 1.000000     O
    O   1.0     0.104890     0.109432     0.823510  Biso 1.000000     O
    O   1.0     0.658679     0.188443     0.966429  Biso 1.000000     O
    O   1.0     0.455347     0.367974     0.552838  Biso 1.000000     O
    O   1.0     0.152930     0.500715     0.585991  Biso 1.000000     O
    O   1.0     0.904409     0.323468     0.447922  Biso 1.000000     O
    O   1.0     0.737753     0.202287     0.858119  Biso 1.000000     O
    O   1.0     0.563682     0.279451     0.546453  Biso 1.000000     O
    O   1.0     0.341248     0.811466     0.033455  Biso 1.000000     O
    O   1.0     0.436205     0.720406     0.453383  Biso 1.000000     O
    O   1.0     0.277627     0.323006     0.625850  Biso 1.000000     O
    O   1.0     0.095497     0.676389     0.551970  Biso 1.000000     O
    O   1.0     0.846942     0.499165     0.413863  Biso 1.000000     O
    O   1.0     0.678703     0.277552     0.255364  Biso 1.000000     O
    O   1.0     0.420158     0.567371     0.573725  Biso 1.000000     O
    O   1.0     0.974945     0.753082     0.546125  Biso 1.000000     O
    O   1.0     0.355311     0.789069     0.625958  Biso 1.000000     O
    O   1.0     0.288958     0.215927     0.938059  Biso 1.000000     O
    O   1.0     0.024974     0.246800     0.453703  Biso 1.000000     O
    O   1.0     0.644544     0.210783     0.373859  Biso 1.000000     O
    O   1.0     0.416651     0.495268     0.743209  Biso 1.000000     O
    O   1.0     0.321246     0.722340     0.744511  Biso 1.000000     O
    O   1.0     0.710963     0.783948     0.061820  Biso 1.000000     O
    O   1.0     0.895031     0.890473     0.176352  Biso 1.000000     O
    O   1.0     0.544497     0.631837     0.446973  Biso 1.000000     O
    O   1.0     0.262160     0.797601     0.141751  Biso 1.000000     O
    O   1.0     0.583256     0.504595     0.256631  Biso 1.000000     O
   Zn   1.0     0.445297     0.711660     0.596378  Biso 1.000000    Zn
   Zn   1.0     0.499922     0.499898     0.499925  Biso 1.000000    Zn
   Zn   1.0     0.554523     0.288157     0.403409  Biso 1.000000    Zn
   Zn   1.0     0.157041     0.372998     0.596800  Biso 1.000000    Zn
   Zn   1.0     0.842868     0.626894     0.403042  Biso 1.000000    Zn
   Zn   1.0    -0.000084     0.499900     0.499918  Biso 1.000000    Zn
