#======================================================================

# CRYSTAL DATA

#----------------------------------------------------------------------

data_VESTA_phase_1


_pd_phase_name                         MOF
_cell_length_a                         22.41200
_cell_length_b                         17.84500
_cell_length_c                         17.87600
_cell_angle_alpha                      79.01100
_cell_angle_beta                       71.82900
_cell_angle_gamma                      71.74500
_symmetry_space_group_name_H-M         "P 1"
_symmetry_Int_Tables_number            1

loop_
_symmetry_equiv_pos_as_xyz
   "x, y, z"

loop_
   _atom_site_label
   _atom_site_occupancy
   _atom_site_fract_x
   _atom_site_fract_y
   _atom_site_fract_z
   _atom_site_adp_type
   _atom_site_B_iso_or_equiv
   _atom_site_type_symbol
    H   1.0     0.371792     0.106056     0.162838  Biso 1.000000     H
    H   1.0     0.871774     0.106060     0.162833  Biso 1.000000     H
    H   1.0     0.344873     0.138764     0.016510  Biso 1.000000     H
    H   1.0     0.844857     0.138771     0.016504  Biso 1.000000     H
    H   1.0     0.434851     0.343337     0.766905  Biso 1.000000     H
    H   1.0     0.934831     0.343346     0.766897  Biso 1.000000     H
    H   1.0     0.440878     0.549581     0.828208  Biso 1.000000     H
    H   1.0     0.940864     0.549587     0.828195  Biso 1.000000     H
    H   1.0     0.325722     0.502749     0.881283  Biso 1.000000     H
    H   1.0     0.825708     0.502756     0.881277  Biso 1.000000     H
    H   1.0     0.492481     0.162135     0.106551  Biso 1.000000     H
    H   1.0     0.992461     0.162123     0.106550  Biso 1.000000     H
    H   1.0     0.076464     0.015853     0.139320  Biso 1.000000     H
    H   1.0     0.576458     0.015855     0.139320  Biso 1.000000     H
    H   1.0     0.010476     0.765587     0.342661  Biso 1.000000     H
    H   1.0     0.510454     0.765599     0.342654  Biso 1.000000     H
    H   1.0     0.370409     0.827757     0.549594  Biso 1.000000     H
    H   1.0     0.870387     0.827766     0.549598  Biso 1.000000     H
    H   1.0     0.482543     0.880639     0.502642  Biso 1.000000     H
    H   1.0     0.982525     0.880640     0.502646  Biso 1.000000     H
    H   1.0     0.377404     0.337946     0.393517  Biso 1.000000     H
    H   1.0     0.877380     0.337947     0.393512  Biso 1.000000     H
    H   1.0     0.405191     0.483955     0.360617  Biso 1.000000     H
    H   1.0     0.905165     0.483951     0.360619  Biso 1.000000     H
    H   1.0     0.314971     0.734183     0.156964  Biso 1.000000     H
    H   1.0     0.814959     0.734182     0.156963  Biso 1.000000     H
    H   1.0     0.308884     0.672523     0.950599  Biso 1.000000     H
    H   1.0     0.808868     0.672532     0.950599  Biso 1.000000     H
    H   1.0     0.424074     0.619424     0.997474  Biso 1.000000     H
    H   1.0     0.924059     0.619422     0.997473  Biso 1.000000     H
    H   1.0     0.256701     0.393851     0.337371  Biso 1.000000     H
    H   1.0     0.756678     0.393843     0.337363  Biso 1.000000     H
    H   1.0     0.172846     0.361224     0.483361  Biso 1.000000     H
    H   1.0     0.672822     0.361222     0.483352  Biso 1.000000     H
    H   1.0     0.240016     0.157114     0.733252  Biso 1.000000     H
    H   1.0     0.740004     0.157115     0.733249  Biso 1.000000     H
    H   1.0     0.379741     0.950316     0.672159  Biso 1.000000     H
    H   1.0     0.879725     0.950317     0.672169  Biso 1.000000     H
    H   1.0     0.267609     0.997184     0.619136  Biso 1.000000     H
    H   1.0     0.767595     0.997182     0.619144  Biso 1.000000     H
    H   1.0     0.128194     0.893914     0.837176  Biso 1.000000     H
    H   1.0     0.628173     0.893920     0.837175  Biso 1.000000     H
    H   1.0     0.155108     0.861207     0.983506  Biso 1.000000     H
    H   1.0     0.655088     0.861216     0.983504  Biso 1.000000     H
    H   1.0     0.065140     0.656626     0.233124  Biso 1.000000     H
    H   1.0     0.565119     0.656638     0.233118  Biso 1.000000     H
    H   1.0     0.059097     0.450394     0.171822  Biso 1.000000     H
    H   1.0     0.559084     0.450398     0.171805  Biso 1.000000     H
    H   1.0     0.174256     0.497222     0.118730  Biso 1.000000     H
    H   1.0     0.674246     0.497225     0.118719  Biso 1.000000     H
    H   1.0     0.007506     0.837857     0.893459  Biso 1.000000     H
    H   1.0     0.507490     0.837846     0.893459  Biso 1.000000     H
    H   1.0     0.423506     0.984121     0.860692  Biso 1.000000     H
    H   1.0     0.923497     0.984122     0.860690  Biso 1.000000     H
    H   1.0     0.489516     0.234375     0.657364  Biso 1.000000     H
    H   1.0     0.989497     0.234384     0.657361  Biso 1.000000     H
    H   1.0     0.129571     0.172225     0.450414  Biso 1.000000     H
    H   1.0     0.629553     0.172230     0.450418  Biso 1.000000     H
    H   1.0     0.017433     0.119348     0.497368  Biso 1.000000     H
    H   1.0     0.517422     0.119345     0.497367  Biso 1.000000     H
    H   1.0     0.122589     0.662031     0.606498  Biso 1.000000     H
    H   1.0     0.622569     0.662031     0.606498  Biso 1.000000     H
    H   1.0     0.094811     0.516020     0.639397  Biso 1.000000     H
    H   1.0     0.594788     0.516022     0.639395  Biso 1.000000     H
    H   1.0     0.184998     0.265795     0.843055  Biso 1.000000     H
    H   1.0     0.684992     0.265798     0.843047  Biso 1.000000     H
    H   1.0     0.191094     0.327462     0.049422  Biso 1.000000     H
    H   1.0     0.691078     0.327464     0.049423  Biso 1.000000     H
    H   1.0     0.075905     0.380564     0.002546  Biso 1.000000     H
    H   1.0     0.575887     0.380568     0.002545  Biso 1.000000     H
    H   1.0     0.243295     0.606131     0.662643  Biso 1.000000     H
    H   1.0     0.743276     0.606123     0.662641  Biso 1.000000     H
    H   1.0     0.327150     0.638761     0.516654  Biso 1.000000     H
    H   1.0     0.827130     0.638753     0.516654  Biso 1.000000     H
    H   1.0     0.259957     0.842869     0.266763  Biso 1.000000     H
    H   1.0     0.759944     0.842868     0.266762  Biso 1.000000     H
    H   1.0     0.120240     0.049663     0.327838  Biso 1.000000     H
    H   1.0     0.620227     0.049663     0.327845  Biso 1.000000     H
    H   1.0     0.232369     0.002804     0.380865  Biso 1.000000     H
    H   1.0     0.732356     0.002800     0.380873  Biso 1.000000     H
    C   1.0     0.355252     0.162761     0.130120  Biso 1.000000     C
    C   1.0     0.855230     0.162766     0.130120  Biso 1.000000     C
    C   1.0     0.341861     0.179091     0.056642  Biso 1.000000     C
    C   1.0     0.841840     0.179097     0.056639  Biso 1.000000     C
    C   1.0     0.324001     0.288904     0.102658  Biso 1.000000     C
    C   1.0     0.823977     0.288905     0.102661  Biso 1.000000     C
    C   1.0     0.424872     0.287329     0.768600  Biso 1.000000     C
    C   1.0     0.924853     0.287338     0.768593  Biso 1.000000     C
    C   1.0     0.454697     0.370151     0.902496  Biso 1.000000     C
    C   1.0     0.954683     0.370157     0.902491  Biso 1.000000     C
    C   1.0     0.432602     0.492832     0.855894  Biso 1.000000     C
    C   1.0     0.932588     0.492839     0.855885  Biso 1.000000     C
    C   1.0     0.375261     0.469379     0.881544  Biso 1.000000     C
    C   1.0     0.875247     0.469386     0.881538  Biso 1.000000     C
    C   1.0     0.497288     0.129556     0.163157  Biso 1.000000     C
    C   1.0     0.997272     0.129549     0.163156  Biso 1.000000     C
    C   1.0     0.039386     0.056088     0.179527  Biso 1.000000     C
    C   1.0     0.539381     0.056092     0.179527  Biso 1.000000     C
    C   1.0     0.479769     0.102424     0.289033  Biso 1.000000     C
    C   1.0     0.979756     0.102422     0.289032  Biso 1.000000     C
    C   1.0     0.047474     0.767725     0.286829  Biso 1.000000     C
    C   1.0     0.547457     0.767734     0.286826  Biso 1.000000     C
    C   1.0     0.408958     0.901686     0.370383  Biso 1.000000     C
    C   1.0     0.908946     0.901677     0.370383  Biso 1.000000     C
    C   1.0     0.393156     0.855347     0.492898  Biso 1.000000     C
    C   1.0     0.893139     0.855348     0.492900  Biso 1.000000     C
    C   1.0     0.449463     0.880878     0.469376  Biso 1.000000     C
    C   1.0     0.949448     0.880876     0.469378  Biso 1.000000     C
    C   1.0     0.394130     0.370478     0.336886  Biso 1.000000     C
    C   1.0     0.894109     0.370479     0.336883  Biso 1.000000     C
    C   1.0     0.407953     0.443811     0.320450  Biso 1.000000     C
    C   1.0     0.907929     0.443808     0.320452  Biso 1.000000     C
    C   1.0     0.425542     0.397600     0.210995  Biso 1.000000     C
    C   1.0     0.925524     0.397599     0.211000  Biso 1.000000     C
    C   1.0     0.325005     0.732035     0.212955  Biso 1.000000     C
    C   1.0     0.824991     0.732033     0.212955  Biso 1.000000     C
    C   1.0     0.295249     0.598002     0.129645  Biso 1.000000     C
    C   1.0     0.795232     0.598009     0.129646  Biso 1.000000     C
    C   1.0     0.317218     0.644741     0.007242  Biso 1.000000     C
    C   1.0     0.817201     0.644748     0.007241  Biso 1.000000     C
    C   1.0     0.374575     0.619087     0.030725  Biso 1.000000     C
    C   1.0     0.874561     0.619086     0.030724  Biso 1.000000     C
    C   1.0     0.252071     0.337160     0.370041  Biso 1.000000     C
    C   1.0     0.752055     0.337153     0.370041  Biso 1.000000     C
    C   1.0     0.210028     0.320875     0.443343  Biso 1.000000     C
    C   1.0     0.710011     0.320870     0.443343  Biso 1.000000     C
    C   1.0     0.269951     0.211030     0.397492  Biso 1.000000     C
    C   1.0     0.769937     0.211024     0.397498  Biso 1.000000     C
    C   1.0     0.202810     0.212998     0.731519  Biso 1.000000     C
    C   1.0     0.702790     0.212992     0.731525  Biso 1.000000     C
    C   1.0     0.341113     0.129711     0.597738  Biso 1.000000     C
    C   1.0     0.841101     0.129708     0.597735  Biso 1.000000     C
    C   1.0     0.356964     0.007068     0.644435  Biso 1.000000     C
    C   1.0     0.856954     0.007066     0.644434  Biso 1.000000     C
    C   1.0     0.300664     0.030547     0.618820  Biso 1.000000     C
    C   1.0     0.800653     0.030544     0.618821  Biso 1.000000     C
    C   1.0     0.144735     0.837209     0.869892  Biso 1.000000     C
    C   1.0     0.644720     0.837216     0.869889  Biso 1.000000     C
    C   1.0     0.158123     0.820880     0.943373  Biso 1.000000     C
    C   1.0     0.658110     0.820888     0.943368  Biso 1.000000     C
    C   1.0     0.175988     0.711068     0.897354  Biso 1.000000     C
    C   1.0     0.675977     0.711075     0.897348  Biso 1.000000     C
    C   1.0     0.075116     0.712637     0.231424  Biso 1.000000     C
    C   1.0     0.575096     0.712648     0.231417  Biso 1.000000     C
    C   1.0     0.045280     0.629826     0.097530  Biso 1.000000     C
    C   1.0     0.545269     0.629835     0.097525  Biso 1.000000     C
    C   1.0     0.067373     0.507143     0.144134  Biso 1.000000     C
    C   1.0     0.567362     0.507149     0.144131  Biso 1.000000     C
    C   1.0     0.124715     0.530596     0.118479  Biso 1.000000     C
    C   1.0     0.624705     0.530601     0.118469  Biso 1.000000     C
    C   1.0     0.002693     0.870431     0.836853  Biso 1.000000     C
    C   1.0     0.502681     0.870424     0.836853  Biso 1.000000     C
    C   1.0     0.460584     0.943885     0.820484  Biso 1.000000     C
    C   1.0     0.960577     0.943888     0.820483  Biso 1.000000     C
    C   1.0     0.020211     0.897560     0.710978  Biso 1.000000     C
    C   1.0     0.520198     0.897556     0.710979  Biso 1.000000     C
    C   1.0     0.452512     0.232241     0.713192  Biso 1.000000     C
    C   1.0     0.952493     0.232250     0.713188  Biso 1.000000     C
    C   1.0     0.091018     0.098305     0.629628  Biso 1.000000     C
    C   1.0     0.591006     0.098300     0.629625  Biso 1.000000     C
    C   1.0     0.106821     0.144640     0.507111  Biso 1.000000     C
    C   1.0     0.606804     0.144645     0.507115  Biso 1.000000     C
    C   1.0     0.050512     0.119110     0.530635  Biso 1.000000     C
    C   1.0     0.550498     0.119111     0.530635  Biso 1.000000     C
    C   1.0     0.105856     0.629503     0.663129  Biso 1.000000     C
    C   1.0     0.605831     0.629506     0.663129  Biso 1.000000     C
    C   1.0     0.092037     0.556170     0.679562  Biso 1.000000     C
    C   1.0     0.592009     0.556173     0.679563  Biso 1.000000     C
    C   1.0     0.074442     0.602383     0.789016  Biso 1.000000     C
    C   1.0     0.574417     0.602385     0.789015  Biso 1.000000     C
    C   1.0     0.174967     0.267946     0.787062  Biso 1.000000     C
    C   1.0     0.674950     0.267938     0.787063  Biso 1.000000     C
    C   1.0     0.204735     0.401962     0.870368  Biso 1.000000     C
    C   1.0     0.704717     0.401975     0.870370  Biso 1.000000     C
    C   1.0     0.182762     0.355240     0.992777  Biso 1.000000     C
    C   1.0     0.682746     0.355246     0.992779  Biso 1.000000     C
    C   1.0     0.125404     0.380898     0.969295  Biso 1.000000     C
    C   1.0     0.625387     0.380903     0.969295  Biso 1.000000     C
    C   1.0     0.247917     0.662822     0.629966  Biso 1.000000     C
    C   1.0     0.747898     0.662814     0.629965  Biso 1.000000     C
    C   1.0     0.289960     0.679109     0.556666  Biso 1.000000     C
    C   1.0     0.789940     0.679101     0.556665  Biso 1.000000     C
    C   1.0     0.230032     0.788952     0.602517  Biso 1.000000     C
    C   1.0     0.730015     0.788945     0.602518  Biso 1.000000     C
    C   1.0     0.297165     0.786987     0.268494  Biso 1.000000     C
    C   1.0     0.797150     0.786983     0.268494  Biso 1.000000     C
    C   1.0     0.158865     0.870274     0.402278  Biso 1.000000     C
    C   1.0     0.658848     0.870275     0.402285  Biso 1.000000     C
    C   1.0     0.143011     0.992916     0.355575  Biso 1.000000     C
    C   1.0     0.642997     0.992916     0.355582  Biso 1.000000     C
    C   1.0     0.199312     0.969440     0.381190  Biso 1.000000     C
    C   1.0     0.699298     0.969438     0.381197  Biso 1.000000     C
    C   1.0     0.379023     0.192518     0.807376  Biso 1.000000     C
    C   1.0     0.879006     0.192525     0.807374  Biso 1.000000     C
    C   1.0     0.120958     0.807452     0.192640  Biso 1.000000     C
    C   1.0     0.620942     0.807460     0.192638  Biso 1.000000     C
    C   1.0     0.371056     0.692432     0.307505  Biso 1.000000     C
    C   1.0     0.871042     0.692428     0.307506  Biso 1.000000     C
    C   1.0     0.128920     0.307555     0.692508  Biso 1.000000     C
    C   1.0     0.628894     0.307542     0.692522  Biso 1.000000     C
    N   1.0     0.344162     0.232986     0.158686  Biso 1.000000     N
    N   1.0     0.844144     0.232989     0.158687  Biso 1.000000     N
    N   1.0     0.322195     0.259391     0.039230  Biso 1.000000     N
    N   1.0     0.822178     0.259396     0.039226  Biso 1.000000     N
    N   1.0     0.301736     0.370925     0.112856  Biso 1.000000     N
    N   1.0     0.801716     0.370927     0.112857  Biso 1.000000     N
    N   1.0     0.378413     0.261657     0.828699  Biso 1.000000     N
    N   1.0     0.878393     0.261667     0.828694  Biso 1.000000     N
    N   1.0     0.389669     0.391077     0.910420  Biso 1.000000     N
    N   1.0     0.889655     0.391085     0.910421  Biso 1.000000     N
    N   1.0     0.482862     0.429686     0.869348  Biso 1.000000     N
    N   1.0     0.982848     0.429694     0.869342  Biso 1.000000     N
    N   1.0     0.490288     0.293384     0.928453  Biso 1.000000     N
    N   1.0     0.990276     0.293392     0.928448  Biso 1.000000     N
    N   1.0     0.459265     0.158321     0.233192  Biso 1.000000     N
    N   1.0     0.959245     0.158312     0.233191  Biso 1.000000     N
    N   1.0     0.027980     0.038893     0.259647  Biso 1.000000     N
    N   1.0     0.527977     0.038897     0.259646  Biso 1.000000     N
    N   1.0     0.456326     0.112883     0.370815  Biso 1.000000     N
    N   1.0     0.956310     0.112878     0.370816  Biso 1.000000     N
    N   1.0     0.076475     0.828198     0.261768  Biso 1.000000     N
    N   1.0     0.576456     0.828207     0.261765  Biso 1.000000     N
    N   1.0     0.459678     0.909590     0.391181  Biso 1.000000     N
    N   1.0     0.959667     0.909580     0.391181  Biso 1.000000     N
    N   1.0     0.367600     0.868734     0.429911  Biso 1.000000     N
    N   1.0     0.867585     0.868731     0.429912  Biso 1.000000     N
    N   1.0     0.398727     0.927335     0.293696  Biso 1.000000     N
    N   1.0     0.898717     0.927324     0.293695  Biso 1.000000     N
    N   1.0     0.405073     0.341781     0.266886  Biso 1.000000     N
    N   1.0     0.905051     0.341780     0.266879  Biso 1.000000     N
    N   1.0     0.427729     0.461005     0.240319  Biso 1.000000     N
    N   1.0     0.927717     0.461001     0.240316  Biso 1.000000     N
    N   1.0     0.447752     0.387154     0.129215  Biso 1.000000     N
    N   1.0     0.947733     0.387161     0.129204  Biso 1.000000     N
    N   1.0     0.371732     0.671719     0.238159  Biso 1.000000     N
    N   1.0     0.871720     0.671717     0.238158  Biso 1.000000     N
    N   1.0     0.360251     0.590126     0.108849  Biso 1.000000     N
    N   1.0     0.860237     0.590123     0.108847  Biso 1.000000     N
    N   1.0     0.267030     0.631190     0.070188  Biso 1.000000     N
    N   1.0     0.767015     0.631199     0.070186  Biso 1.000000     N
    N   1.0     0.259716     0.572031     0.206244  Biso 1.000000     N
    N   1.0     0.759699     0.572040     0.206239  Biso 1.000000     N
    N   1.0     0.290301     0.266914     0.341588  Biso 1.000000     N
    N   1.0     0.790284     0.266906     0.341590  Biso 1.000000     N
    N   1.0     0.221668     0.240589     0.460746  Biso 1.000000     N
    N   1.0     0.721650     0.240583     0.460748  Biso 1.000000     N
    N   1.0     0.293589     0.129016     0.387308  Biso 1.000000     N
    N   1.0     0.793560     0.129009     0.387308  Biso 1.000000     N
    N   1.0     0.173690     0.238591     0.671199  Biso 1.000000     N
    N   1.0     0.673666     0.238585     0.671203  Biso 1.000000     N
    N   1.0     0.290421     0.108832     0.589865  Biso 1.000000     N
    N   1.0     0.790408     0.108829     0.589866  Biso 1.000000     N
    N   1.0     0.382480     0.070171     0.630877  Biso 1.000000     N
    N   1.0     0.882467     0.070170     0.630878  Biso 1.000000     N
    N   1.0     0.351343     0.206464     0.571813  Biso 1.000000     N
    N   1.0     0.851323     0.206466     0.571825  Biso 1.000000     N
    N   1.0     0.155825     0.766985     0.841325  Biso 1.000000     N
    N   1.0     0.655809     0.766991     0.841323  Biso 1.000000     N
    N   1.0     0.177789     0.740580     0.960786  Biso 1.000000     N
    N   1.0     0.677775     0.740588     0.960782  Biso 1.000000     N
    N   1.0     0.198256     0.629046     0.887157  Biso 1.000000     N
    N   1.0     0.698230     0.629052     0.887161  Biso 1.000000     N
    N   1.0     0.121574     0.738309     0.171321  Biso 1.000000     N
    N   1.0     0.621553     0.738321     0.171314  Biso 1.000000     N
    N   1.0     0.110310     0.608895     0.089593  Biso 1.000000     N
    N   1.0     0.610299     0.608900     0.089590  Biso 1.000000     N
    N   1.0     0.017115     0.570289     0.130676  Biso 1.000000     N
    N   1.0     0.517107     0.570293     0.130668  Biso 1.000000     N
    N   1.0     0.009692     0.706586     0.071559  Biso 1.000000     N
    N   1.0     0.509687     0.706589     0.071546  Biso 1.000000     N
    N   1.0     0.040725     0.841671     0.766817  Biso 1.000000     N
    N   1.0     0.540706     0.841660     0.766818  Biso 1.000000     N
    N   1.0     0.471988     0.961082     0.740365  Biso 1.000000     N
    N   1.0     0.971985     0.961086     0.740363  Biso 1.000000     N
    N   1.0     0.043664     0.887108     0.629193  Biso 1.000000     N
    N   1.0     0.543640     0.887107     0.629194  Biso 1.000000     N
    N   1.0     0.423510     0.171771     0.738249  Biso 1.000000     N
    N   1.0     0.923491     0.171778     0.738247  Biso 1.000000     N
    N   1.0     0.040296     0.090403     0.608829  Biso 1.000000     N
    N   1.0     0.540287     0.090390     0.608828  Biso 1.000000     N
    N   1.0     0.132376     0.131256     0.570097  Biso 1.000000     N
    N   1.0     0.632364     0.131252     0.570099  Biso 1.000000     N
    N   1.0     0.101253     0.072651     0.706309  Biso 1.000000     N
    N   1.0     0.601247     0.072632     0.706307  Biso 1.000000     N
    N   1.0     0.094914     0.658201     0.733130  Biso 1.000000     N
    N   1.0     0.594897     0.658199     0.733128  Biso 1.000000     N
    N   1.0     0.072256     0.538977     0.759696  Biso 1.000000     N
    N   1.0     0.572238     0.538973     0.759695  Biso 1.000000     N
    N   1.0     0.052244     0.612818     0.870803  Biso 1.000000     N
    N   1.0     0.552235     0.612813     0.870800  Biso 1.000000     N
    N   1.0     0.128239     0.328262     0.761860  Biso 1.000000     N
    N   1.0     0.628220     0.328261     0.761861  Biso 1.000000     N
    N   1.0     0.139730     0.409850     0.891169  Biso 1.000000     N
    N   1.0     0.639713     0.409856     0.891171  Biso 1.000000     N
    N   1.0     0.232951     0.368783     0.929829  Biso 1.000000     N
    N   1.0     0.732933     0.368790     0.929832  Biso 1.000000     N
    N   1.0     0.240268     0.427923     0.793766  Biso 1.000000     N
    N   1.0     0.740248     0.427929     0.793771  Biso 1.000000     N
    N   1.0     0.209688     0.733067     0.658423  Biso 1.000000     N
    N   1.0     0.709669     0.733061     0.658422  Biso 1.000000     N
    N   1.0     0.278320     0.759397     0.539267  Biso 1.000000     N
    N   1.0     0.778301     0.759390     0.539267  Biso 1.000000     N
    N   1.0     0.206404     0.870967     0.612714  Biso 1.000000     N
    N   1.0     0.706390     0.870961     0.612715  Biso 1.000000     N
    N   1.0     0.326286     0.761396     0.328813  Biso 1.000000     N
    N   1.0     0.826273     0.761393     0.328812  Biso 1.000000     N
    N   1.0     0.209558     0.891157     0.410147  Biso 1.000000     N
    N   1.0     0.709543     0.891153     0.410151  Biso 1.000000     N
    N   1.0     0.117499     0.929811     0.369131  Biso 1.000000     N
    N   1.0     0.617485     0.929812     0.369136  Biso 1.000000     N
    N   1.0     0.148643     0.793520     0.428188  Biso 1.000000     N
    N   1.0     0.648629     0.793517     0.428184  Biso 1.000000     N
    N   1.0     0.333329     0.149263     0.849991  Biso 1.000000     N
    N   1.0     0.833316     0.149263     0.849996  Biso 1.000000     N
    N   1.0     0.166654     0.850708     0.150024  Biso 1.000000     N
    N   1.0     0.666634     0.850717     0.150022  Biso 1.000000     N
    N   1.0     0.416964     0.649293     0.350387  Biso 1.000000     N
    N   1.0     0.916950     0.649291     0.350392  Biso 1.000000     N
    N   1.0     0.083016     0.350692     0.649622  Biso 1.000000     N
    N   1.0     0.583006     0.350705     0.649607  Biso 1.000000     N
    O   1.0     0.303181     0.391388     0.175549  Biso 1.000000     O
    O   1.0     0.803165     0.391391     0.175547  Biso 1.000000     O
    O   1.0     0.280563     0.418416     0.059685  Biso 1.000000     O
    O   1.0     0.780549     0.418420     0.059684  Biso 1.000000     O
    O   1.0     0.461018     0.240504     0.952668  Biso 1.000000     O
    O   1.0     0.961006     0.240513     0.952671  Biso 1.000000     O
    O   1.0     0.292153     0.175364     0.911626  Biso 1.000000     O
    O   1.0     0.792137     0.175372     0.911624  Biso 1.000000     O
    O   1.0     0.048570     0.283839     0.925751  Biso 1.000000     O
    O   1.0     0.548564     0.283831     0.925761  Biso 1.000000     O
    O   1.0     0.413189     0.175548     0.391205  Biso 1.000000     O
    O   1.0     0.913168     0.175540     0.391203  Biso 1.000000     O
    O   1.0     0.480785     0.059939     0.418154  Biso 1.000000     O
    O   1.0     0.980772     0.059936     0.418154  Biso 1.000000     O
    O   1.0     0.442583     0.950696     0.240670  Biso 1.000000     O
    O   1.0     0.942581     0.950666     0.240666  Biso 1.000000     O
    O   1.0     0.164025     0.911903     0.177151  Biso 1.000000     O
    O   1.0     0.664013     0.911906     0.177153  Biso 1.000000     O
    O   1.0     0.346331     0.925212     0.284320  Biso 1.000000     O
    O   1.0     0.846321     0.925203     0.284318  Biso 1.000000     O
    O   1.0     0.445685     0.324602     0.108943  Biso 1.000000     O
    O   1.0     0.945669     0.324611     0.108930  Biso 1.000000     O
    O   1.0     0.469404     0.439985     0.081755  Biso 1.000000     O
    O   1.0     0.969408     0.439970     0.081740  Biso 1.000000     O
    O   1.0     0.288970     0.548083     0.259126  Biso 1.000000     O
    O   1.0     0.788953     0.548070     0.259120  Biso 1.000000     O
    O   1.0     0.458676     0.588313     0.323223  Biso 1.000000     O
    O   1.0     0.958650     0.588303     0.323232  Biso 1.000000     O
    O   1.0     0.201533     0.574432     0.215657  Biso 1.000000     O
    O   1.0     0.701510     0.574466     0.215651  Biso 1.000000     O
    O   1.0     0.336821     0.108423     0.324928  Biso 1.000000     O
    O   1.0     0.836810     0.108412     0.324942  Biso 1.000000     O
    O   1.0     0.269140     0.081677     0.440162  Biso 1.000000     O
    O   1.0     0.769116     0.081664     0.440158  Biso 1.000000     O
    O   1.0     0.307696     0.259397     0.547720  Biso 1.000000     O
    O   1.0     0.807672     0.259389     0.547730  Biso 1.000000     O
    O   1.0     0.085975     0.324716     0.587716  Biso 1.000000     O
    O   1.0     0.585957     0.324720     0.587713  Biso 1.000000     O
    O   1.0     0.403521     0.215987     0.574513  Biso 1.000000     O
    O   1.0     0.903509     0.215986     0.574503  Biso 1.000000     O
    O   1.0     0.196816     0.608578     0.824465  Biso 1.000000     O
    O   1.0     0.696788     0.608589     0.824466  Biso 1.000000     O
    O   1.0     0.219421     0.581556     0.940334  Biso 1.000000     O
    O   1.0     0.719401     0.581558     0.940331  Biso 1.000000     O
    O   1.0     0.038958     0.759471     0.047359  Biso 1.000000     O
    O   1.0     0.538957     0.759469     0.047296  Biso 1.000000     O
    O   1.0     0.207828     0.824607     0.088390  Biso 1.000000     O
    O   1.0     0.707809     0.824612     0.088389  Biso 1.000000     O
    O   1.0     0.451392     0.716147     0.074315  Biso 1.000000     O
    O   1.0     0.951399     0.716138     0.074249  Biso 1.000000     O
    O   1.0     0.086796     0.824439     0.608803  Biso 1.000000     O
    O   1.0     0.586776     0.824442     0.608804  Biso 1.000000     O
    O   1.0     0.019202     0.940050     0.581855  Biso 1.000000     O
    O   1.0     0.519178     0.940047     0.581854  Biso 1.000000     O
    O   1.0     0.057403     0.049274     0.759333  Biso 1.000000     O
    O   1.0     0.557393     0.049264     0.759332  Biso 1.000000     O
    O   1.0     0.335952     0.088079     0.822850  Biso 1.000000     O
    O   1.0     0.835940     0.088077     0.822860  Biso 1.000000     O
    O   1.0     0.153646     0.074789     0.715680  Biso 1.000000     O
    O   1.0     0.653638     0.074767     0.715683  Biso 1.000000     O
    O   1.0     0.054300     0.675375     0.891074  Biso 1.000000     O
    O   1.0     0.554288     0.675374     0.891070  Biso 1.000000     O
    O   1.0     0.030562     0.560009     0.918263  Biso 1.000000     O
    O   1.0     0.530538     0.560016     0.918265  Biso 1.000000     O
    O   1.0     0.211013     0.451874     0.740886  Biso 1.000000     O
    O   1.0     0.710992     0.451889     0.740891  Biso 1.000000     O
    O   1.0     0.041312     0.411681     0.676778  Biso 1.000000     O
    O   1.0     0.541290     0.411675     0.676780  Biso 1.000000     O
    O   1.0     0.298453     0.425516     0.784353  Biso 1.000000     O
    O   1.0     0.798436     0.425517     0.784351  Biso 1.000000     O
    O   1.0     0.163167     0.891553     0.675092  Biso 1.000000     O
    O   1.0     0.663148     0.891548     0.675088  Biso 1.000000     O
    O   1.0     0.230835     0.918315     0.559856  Biso 1.000000     O
    O   1.0     0.730820     0.918310     0.559859  Biso 1.000000     O
    O   1.0     0.192288     0.740604     0.452304  Biso 1.000000     O
    O   1.0     0.692275     0.740594     0.452290  Biso 1.000000     O
    O   1.0     0.414005     0.675272     0.412291  Biso 1.000000     O
    O   1.0     0.913996     0.675279     0.412288  Biso 1.000000     O
    O   1.0     0.096462     0.783991     0.425503  Biso 1.000000     O
    O   1.0     0.596445     0.783993     0.425504  Biso 1.000000     O
   Zn   1.0     0.328351     0.320987     0.928408  Biso 1.000000    Zn
   Zn   1.0     0.828335     0.320996     0.928401  Biso 1.000000    Zn
   Zn   1.0     0.046778     0.927967     0.321281  Biso 1.000000    Zn
   Zn   1.0     0.546769     0.927972     0.321279  Biso 1.000000    Zn
   Zn   1.0     0.421754     0.571949     0.178700  Biso 1.000000    Zn
   Zn   1.0     0.921742     0.571942     0.178708  Biso 1.000000    Zn
   Zn   1.0     0.203224     0.179066     0.571592  Biso 1.000000    Zn
   Zn   1.0     0.703211     0.179066     0.571595  Biso 1.000000    Zn
   Zn   1.0     0.171632     0.678983     0.071606  Biso 1.000000    Zn
   Zn   1.0     0.671618     0.678994     0.071602  Biso 1.000000    Zn
   Zn   1.0     0.453200     0.072004     0.678730  Biso 1.000000    Zn
   Zn   1.0     0.953190     0.072009     0.678729  Biso 1.000000    Zn
   Zn   1.0     0.078224     0.428037     0.821311  Biso 1.000000    Zn
   Zn   1.0     0.578216     0.428034     0.821311  Biso 1.000000    Zn
   Zn   1.0     0.296758     0.820916     0.428417  Biso 1.000000    Zn
   Zn   1.0     0.796745     0.820907     0.428418  Biso 1.000000    Zn
   Zn   1.0     0.374763     0.249995     0.250068  Biso 1.000000    Zn
   Zn   1.0     0.874745     0.249992     0.250074  Biso 1.000000    Zn
   Zn   1.0     0.125225     0.749990     0.749935  Biso 1.000000    Zn
   Zn   1.0     0.625212     0.749984     0.749938  Biso 1.000000    Zn
