#======================================================================

# CRYSTAL DATA

#----------------------------------------------------------------------

data_VESTA_phase_1


_pd_phase_name                         MOF
_cell_length_a                         18.80700
_cell_length_b                         19.55000
_cell_length_c                         19.17300
_cell_angle_alpha                      93.98100
_cell_angle_beta                       94.23400
_cell_angle_gamma                      121.73800
_symmetry_space_group_name_H-M         "P 1"
_symmetry_Int_Tables_number            1

loop_
_symmetry_equiv_pos_as_xyz
   "x, y, z"

loop_
   _atom_site_label
   _atom_site_occupancy
   _atom_site_fract_x
   _atom_site_fract_y
   _atom_site_fract_z
   _atom_site_adp_type
   _atom_site_B_iso_or_equiv
   _atom_site_type_symbol
    H   1.0     0.410809     0.100488     0.956370  Biso 1.000000     H
    H   1.0     0.410805     0.600485     0.956365  Biso 1.000000     H
    H   1.0     0.910817     0.100491     0.956367  Biso 1.000000     H
    H   1.0     0.910817     0.600491     0.956374  Biso 1.000000     H
    H   1.0     0.507295     0.224274     0.902070  Biso 1.000000     H
    H   1.0     0.507291     0.724273     0.902067  Biso 1.000000     H
    H   1.0     0.000000     0.224275     0.902063  Biso 1.000000     H
    H   1.0     0.000000     0.724278     0.902073  Biso 1.000000     H
    H   1.0     0.429451     0.193343     0.829094  Biso 1.000000     H
    H   1.0     0.429447     0.693344     0.829092  Biso 1.000000     H
    H   1.0     0.929453     0.193342     0.829090  Biso 1.000000     H
    H   1.0     0.929454     0.693344     0.829097  Biso 1.000000     H
    H   1.0     0.410790     0.228525     0.983305  Biso 1.000000     H
    H   1.0     0.410786     0.728519     0.983305  Biso 1.000000     H
    H   1.0     0.910795     0.228521     0.983302  Biso 1.000000     H
    H   1.0     0.910792     0.728522     0.983310  Biso 1.000000     H
    H   1.0     0.289276     0.185503     0.848655  Biso 1.000000     H
    H   1.0     0.289273     0.685503     0.848654  Biso 1.000000     H
    H   1.0     0.789284     0.185505     0.848651  Biso 1.000000     H
    H   1.0     0.789280     0.685503     0.848658  Biso 1.000000     H
    H   1.0     0.274980     0.209997     0.935396  Biso 1.000000     H
    H   1.0     0.274975     0.709992     0.935397  Biso 1.000000     H
    H   1.0     0.774985     0.209996     0.935393  Biso 1.000000     H
    H   1.0     0.774981     0.709993     0.935399  Biso 1.000000     H
    H   1.0     0.271232     0.090144     0.973591  Biso 1.000000     H
    H   1.0     0.271228     0.590138     0.973587  Biso 1.000000     H
    H   1.0     0.771234     0.090142     0.973586  Biso 1.000000     H
    H   1.0     0.771230     0.590139     0.973591  Biso 1.000000     H
    H   1.0     0.288838     0.051037     0.820472  Biso 1.000000     H
    H   1.0     0.288836     0.551038     0.820466  Biso 1.000000     H
    H   1.0     0.788845     0.051035     0.820469  Biso 1.000000     H
    H   1.0     0.788845     0.551034     0.820475  Biso 1.000000     H
    H   1.0     0.275825    -0.009214     0.889436  Biso 1.000000     H
    H   1.0     0.275822     0.490783     0.889428  Biso 1.000000     H
    H   1.0     0.775833    -0.009214     0.889435  Biso 1.000000     H
    H   1.0     0.775834     0.490786     0.889442  Biso 1.000000     H
    H   1.0     0.400792     0.290347     0.732273  Biso 1.000000     H
    H   1.0     0.400794     0.790343     0.732276  Biso 1.000000     H
    H   1.0     0.900807     0.290351     0.732271  Biso 1.000000     H
    H   1.0     0.900790     0.790343     0.732282  Biso 1.000000     H
    H   1.0     0.310515     0.217217     0.618028  Biso 1.000000     H
    H   1.0     0.310523     0.717210     0.618029  Biso 1.000000     H
    H   1.0     0.810534     0.217221     0.618026  Biso 1.000000     H
    H   1.0     0.810506     0.717209     0.618041  Biso 1.000000     H
    H   1.0     0.267905     0.332513     0.481297  Biso 1.000000     H
    H   1.0     0.267904     0.832499     0.481297  Biso 1.000000     H
    H   1.0     0.767908     0.332512     0.481299  Biso 1.000000     H
    H   1.0     0.767900     0.832502     0.481305  Biso 1.000000     H
    H   1.0     0.351963     0.446821     0.566896  Biso 1.000000     H
    H   1.0     0.351934     0.946803     0.566904  Biso 1.000000     H
    H   1.0     0.851932     0.446815     0.566913  Biso 1.000000     H
    H   1.0     0.851941     0.946809     0.566909  Biso 1.000000     H
    H   1.0     0.439372     0.509794     0.685147  Biso 1.000000     H
    H   1.0     0.439341     0.000000     0.685156  Biso 1.000000     H
    H   1.0     0.939345     0.509788     0.685163  Biso 1.000000     H
    H   1.0     0.939359     0.000000     0.685156  Biso 1.000000     H
    H   1.0     0.089167     0.399497     0.043503  Biso 1.000000     H
    H   1.0     0.089164     0.899496     0.043502  Biso 1.000000     H
    H   1.0     0.589175     0.399500     0.043504  Biso 1.000000     H
    H   1.0     0.589172     0.899499     0.043503  Biso 1.000000     H
    H   1.0    -0.007346     0.275703     0.097789  Biso 1.000000     H
    H   1.0    -0.007350     0.775704     0.097789  Biso 1.000000     H
    H   1.0     0.492660     0.275705     0.097786  Biso 1.000000     H
    H   1.0     0.492656     0.775704     0.097785  Biso 1.000000     H
    H   1.0     0.070480     0.306628     0.170779  Biso 1.000000     H
    H   1.0     0.070475     0.806630     0.170780  Biso 1.000000     H
    H   1.0     0.570482     0.306628     0.170779  Biso 1.000000     H
    H   1.0     0.570480     0.806627     0.170777  Biso 1.000000     H
    H   1.0     0.089198     0.271469     0.016580  Biso 1.000000     H
    H   1.0     0.089194     0.771467     0.016581  Biso 1.000000     H
    H   1.0     0.589204     0.271469     0.016580  Biso 1.000000     H
    H   1.0     0.589198     0.771467     0.016578  Biso 1.000000     H
    H   1.0     0.210646     0.314461     0.151270  Biso 1.000000     H
    H   1.0     0.210643     0.814463     0.151272  Biso 1.000000     H
    H   1.0     0.710653     0.314465     0.151271  Biso 1.000000     H
    H   1.0     0.710649     0.814460     0.151266  Biso 1.000000     H
    H   1.0     0.224989     0.289978     0.064543  Biso 1.000000     H
    H   1.0     0.224985     0.789977     0.064545  Biso 1.000000     H
    H   1.0     0.724996     0.289980     0.064545  Biso 1.000000     H
    H   1.0     0.724991     0.789979     0.064538  Biso 1.000000     H
    H   1.0     0.228758     0.409833     0.026331  Biso 1.000000     H
    H   1.0     0.228753     0.909832     0.026331  Biso 1.000000     H
    H   1.0     0.728760     0.409833     0.026331  Biso 1.000000     H
    H   1.0     0.728761     0.909836     0.026331  Biso 1.000000     H
    H   1.0     0.211092     0.448938     0.179431  Biso 1.000000     H
    H   1.0     0.211088     0.948940     0.179430  Biso 1.000000     H
    H   1.0     0.711098     0.448937     0.179432  Biso 1.000000     H
    H   1.0     0.711093     0.948935     0.179431  Biso 1.000000     H
    H   1.0     0.224135     0.509189     0.110460  Biso 1.000000     H
    H   1.0     0.224131     0.000000     0.110459  Biso 1.000000     H
    H   1.0     0.724143     0.509191     0.110464  Biso 1.000000     H
    H   1.0     0.724139     0.000000     0.110463  Biso 1.000000     H
    H   1.0     0.099194     0.209628     0.267590  Biso 1.000000     H
    H   1.0     0.099176     0.709620     0.267602  Biso 1.000000     H
    H   1.0     0.599166     0.209621     0.267608  Biso 1.000000     H
    H   1.0     0.599184     0.709626     0.267603  Biso 1.000000     H
    H   1.0     0.189468     0.282757     0.381836  Biso 1.000000     H
    H   1.0     0.189438     0.782742     0.381855  Biso 1.000000     H
    H   1.0     0.689420     0.282746     0.381863  Biso 1.000000     H
    H   1.0     0.689436     0.782746     0.381860  Biso 1.000000     H
    H   1.0     0.232050     0.167456     0.518580  Biso 1.000000     H
    H   1.0     0.232024     0.667438     0.518591  Biso 1.000000     H
    H   1.0     0.732024     0.167451     0.518597  Biso 1.000000     H
    H   1.0     0.732003     0.667438     0.518605  Biso 1.000000     H
    H   1.0     0.147973     0.053143     0.432989  Biso 1.000000     H
    H   1.0     0.147978     0.553131     0.432982  Biso 1.000000     H
    H   1.0     0.647996     0.053146     0.432984  Biso 1.000000     H
    H   1.0     0.647949     0.553130     0.433000  Biso 1.000000     H
    H   1.0     0.060570    -0.009828     0.314735  Biso 1.000000     H
    H   1.0     0.060582     0.490168     0.314724  Biso 1.000000     H
    H   1.0     0.560606    -0.009821     0.314725  Biso 1.000000     H
    H   1.0     0.560566     0.490168     0.314738  Biso 1.000000     H
    C   1.0     0.436185     0.059388     0.862392  Biso 1.000000     C
    C   1.0     0.436183     0.559388     0.862386  Biso 1.000000     C
    C   1.0     0.936194     0.059390     0.862391  Biso 1.000000     C
    C   1.0     0.936195     0.559393     0.862396  Biso 1.000000     C
    C   1.0     0.399157     0.102292     0.899592  Biso 1.000000     C
    C   1.0     0.399154     0.602291     0.899586  Biso 1.000000     C
    C   1.0     0.899164     0.102293     0.899588  Biso 1.000000     C
    C   1.0     0.899164     0.602294     0.899596  Biso 1.000000     C
    C   1.0     0.438773     0.190573     0.885891  Biso 1.000000     C
    C   1.0     0.438770     0.690573     0.885889  Biso 1.000000     C
    C   1.0     0.938779     0.190574     0.885887  Biso 1.000000     C
    C   1.0     0.938778     0.690574     0.885894  Biso 1.000000     C
    C   1.0     0.399055     0.229725     0.926380  Biso 1.000000     C
    C   1.0     0.399050     0.729722     0.926380  Biso 1.000000     C
    C   1.0     0.899060     0.229724     0.926378  Biso 1.000000     C
    C   1.0     0.899059     0.729725     0.926385  Biso 1.000000     C
    C   1.0     0.302856     0.182336     0.904820  Biso 1.000000     C
    C   1.0     0.302851     0.682332     0.904820  Biso 1.000000     C
    C   1.0     0.802861     0.182334     0.904817  Biso 1.000000     C
    C   1.0     0.802860     0.682334     0.904823  Biso 1.000000     C
    C   1.0     0.262210     0.092781     0.916649  Biso 1.000000     C
    C   1.0     0.262206     0.592776     0.916645  Biso 1.000000     C
    C   1.0     0.762215     0.092779     0.916644  Biso 1.000000     C
    C   1.0     0.762213     0.592779     0.916649  Biso 1.000000     C
    C   1.0     0.302869     0.053459     0.877701  Biso 1.000000     C
    C   1.0     0.302866     0.553457     0.877695  Biso 1.000000     C
    C   1.0     0.802876     0.053458     0.877698  Biso 1.000000     C
    C   1.0     0.802876     0.553458     0.877705  Biso 1.000000     C
    C   1.0     0.436313     0.318741     0.916591  Biso 1.000000     C
    C   1.0     0.436308     0.818738     0.916594  Biso 1.000000     C
    C   1.0     0.936320     0.318741     0.916592  Biso 1.000000     C
    C   1.0     0.936316     0.818740     0.916597  Biso 1.000000     C
    C   1.0     0.167281     0.047216     0.894535  Biso 1.000000     C
    C   1.0     0.167277     0.547213     0.894532  Biso 1.000000     C
    C   1.0     0.667286     0.047214     0.894527  Biso 1.000000     C
    C   1.0     0.667285     0.547212     0.894530  Biso 1.000000     C
    C   1.0     0.388792     0.322283     0.693189  Biso 1.000000     C
    C   1.0     0.388787     0.822276     0.693193  Biso 1.000000     C
    C   1.0     0.888798     0.322286     0.693192  Biso 1.000000     C
    C   1.0     0.888785     0.822277     0.693200  Biso 1.000000     C
    C   1.0     0.338221     0.282311     0.629451  Biso 1.000000     C
    C   1.0     0.338217     0.782301     0.629455  Biso 1.000000     C
    C   1.0     0.838225     0.282312     0.629454  Biso 1.000000     C
    C   1.0     0.838209     0.782302     0.629463  Biso 1.000000     C
    C   1.0     0.323436     0.326038     0.581233  Biso 1.000000     C
    C   1.0     0.323424     0.826025     0.581238  Biso 1.000000     C
    C   1.0     0.823429     0.326037     0.581240  Biso 1.000000     C
    C   1.0     0.823418     0.826027     0.581247  Biso 1.000000     C
    C   1.0     0.271331     0.289703     0.512973  Biso 1.000000     C
    C   1.0     0.271321     0.789689     0.512978  Biso 1.000000     C
    C   1.0     0.771323     0.289701     0.512981  Biso 1.000000     C
    C   1.0     0.771312     0.789691     0.512988  Biso 1.000000     C
    C   1.0     0.361524     0.409759     0.601710  Biso 1.000000     C
    C   1.0     0.361503     0.909744     0.601716  Biso 1.000000     C
    C   1.0     0.861504     0.409755     0.601722  Biso 1.000000     C
    C   1.0     0.861507     0.909748     0.601721  Biso 1.000000     C
    C   1.0     0.410949     0.445610     0.666694  Biso 1.000000     C
    C   1.0     0.410926     0.945598     0.666701  Biso 1.000000     C
    C   1.0     0.910931     0.445607     0.666706  Biso 1.000000     C
    C   1.0     0.910936     0.945602     0.666704  Biso 1.000000     C
    C   1.0     0.063763     0.440590     0.137470  Biso 1.000000     C
    C   1.0     0.063759     0.940591     0.137468  Biso 1.000000     C
    C   1.0     0.563769     0.440592     0.137470  Biso 1.000000     C
    C   1.0     0.563767     0.940591     0.137470  Biso 1.000000     C
    C   1.0     0.100799     0.397686     0.100284  Biso 1.000000     C
    C   1.0     0.100796     0.897687     0.100283  Biso 1.000000     C
    C   1.0     0.600805     0.397688     0.100284  Biso 1.000000     C
    C   1.0     0.600802     0.897686     0.100283  Biso 1.000000     C
    C   1.0     0.061173     0.309402     0.113981  Biso 1.000000     C
    C   1.0     0.061169     0.809404     0.113982  Biso 1.000000     C
    C   1.0     0.561178     0.309404     0.113981  Biso 1.000000     C
    C   1.0     0.561175     0.809402     0.113979  Biso 1.000000     C
    C   1.0     0.100904     0.270253     0.073505  Biso 1.000000     C
    C   1.0     0.100898     0.770252     0.073507  Biso 1.000000     C
    C   1.0     0.600909     0.270253     0.073506  Biso 1.000000     C
    C   1.0     0.600906     0.770252     0.073504  Biso 1.000000     C
    C   1.0     0.197096     0.317636     0.095100  Biso 1.000000     C
    C   1.0     0.197091     0.817635     0.095102  Biso 1.000000     C
    C   1.0     0.697101     0.317636     0.095101  Biso 1.000000     C
    C   1.0     0.697098     0.817636     0.095097  Biso 1.000000     C
    C   1.0     0.237755     0.407193     0.083275  Biso 1.000000     C
    C   1.0     0.237750     0.907191     0.083275  Biso 1.000000     C
    C   1.0     0.737760     0.407193     0.083275  Biso 1.000000     C
    C   1.0     0.737757     0.907193     0.083274  Biso 1.000000     C
    C   1.0     0.197082     0.446517     0.122199  Biso 1.000000     C
    C   1.0     0.197079     0.946517     0.122198  Biso 1.000000     C
    C   1.0     0.697089     0.446518     0.122200  Biso 1.000000     C
    C   1.0     0.697085     0.946516     0.122200  Biso 1.000000     C
    C   1.0     0.063626     0.181231     0.083281  Biso 1.000000     C
    C   1.0     0.063622     0.681231     0.083286  Biso 1.000000     C
    C   1.0     0.563633     0.181232     0.083284  Biso 1.000000     C
    C   1.0     0.563630     0.681231     0.083282  Biso 1.000000     C
    C   1.0     0.332676     0.452757     0.105416  Biso 1.000000     C
    C   1.0     0.332672     0.952756     0.105416  Biso 1.000000     C
    C   1.0     0.832682     0.452757     0.105412  Biso 1.000000     C
    C   1.0     0.832679     0.952756     0.105416  Biso 1.000000     C
    C   1.0     0.111187     0.177690     0.306677  Biso 1.000000     C
    C   1.0     0.111170     0.677681     0.306686  Biso 1.000000     C
    C   1.0     0.611168     0.177685     0.306691  Biso 1.000000     C
    C   1.0     0.611169     0.677684     0.306692  Biso 1.000000     C
    C   1.0     0.161750     0.217661     0.370419  Biso 1.000000     C
    C   1.0     0.161735     0.717649     0.370428  Biso 1.000000     C
    C   1.0     0.661726     0.217655     0.370435  Biso 1.000000     C
    C   1.0     0.661731     0.717653     0.370435  Biso 1.000000     C
    C   1.0     0.176526     0.173932     0.418640  Biso 1.000000     C
    C   1.0     0.176510     0.673917     0.418648  Biso 1.000000     C
    C   1.0     0.676513     0.173928     0.418652  Biso 1.000000     C
    C   1.0     0.676493     0.673919     0.418660  Biso 1.000000     C
    C   1.0     0.228623     0.210265     0.486903  Biso 1.000000     C
    C   1.0     0.228610     0.710250     0.486910  Biso 1.000000     C
    C   1.0     0.728609     0.210261     0.486915  Biso 1.000000     C
    C   1.0     0.728593     0.710251     0.486922  Biso 1.000000     C
    C   1.0     0.138420     0.090207     0.398171  Biso 1.000000     C
    C   1.0     0.138423     0.590197     0.398168  Biso 1.000000     C
    C   1.0     0.638432     0.090208     0.398172  Biso 1.000000     C
    C   1.0     0.638403     0.590198     0.398182  Biso 1.000000     C
    C   1.0     0.089004     0.054358     0.333183  Biso 1.000000     C
    C   1.0     0.089005     0.554350     0.333180  Biso 1.000000     C
    C   1.0     0.589021     0.054361     0.333181  Biso 1.000000     C
    C   1.0     0.588989     0.554351     0.333192  Biso 1.000000     C
    N   1.0     0.425131     0.402863     0.711753  Biso 1.000000     N
    N   1.0     0.425116     0.902854     0.711758  Biso 1.000000     N
    N   1.0     0.925125     0.402863     0.711759  Biso 1.000000     N
    N   1.0     0.925123     0.902857     0.711761  Biso 1.000000     N
    N   1.0     0.074831     0.097107     0.288121  Biso 1.000000     N
    N   1.0     0.074832     0.597102     0.288121  Biso 1.000000     N
    N   1.0     0.574839     0.097108     0.288124  Biso 1.000000     N
    N   1.0     0.574830     0.597105     0.288126  Biso 1.000000     N
    O   1.0     0.433828     0.000546     0.893262  Biso 1.000000     O
    O   1.0     0.433828     0.500547     0.893255  Biso 1.000000     O
    O   1.0     0.933834     0.000546     0.893260  Biso 1.000000     O
    O   1.0     0.933836     0.500549     0.893263  Biso 1.000000     O
    O   1.0     0.463846     0.075440     0.804434  Biso 1.000000     O
    O   1.0     0.463846     0.575443     0.804429  Biso 1.000000     O
    O   1.0     0.963860     0.075445     0.804435  Biso 1.000000     O
    O   1.0     0.963856     0.575447     0.804438  Biso 1.000000     O
    O   1.0     0.140901     0.030777     0.827994  Biso 1.000000     O
    O   1.0     0.140896     0.530773     0.827990  Biso 1.000000     O
    O   1.0     0.640908     0.030776     0.827986  Biso 1.000000     O
    O   1.0     0.640909     0.530776     0.827988  Biso 1.000000     O
    O   1.0     0.119231     0.528162     0.942060  Biso 1.000000     O
    O   1.0     0.119226     0.000000     0.942063  Biso 1.000000     O
    O   1.0     0.619233     0.528157     0.942054  Biso 1.000000     O
    O   1.0     0.619228     0.000000     0.942053  Biso 1.000000     O
    O   1.0     0.450317     0.337354     0.854233  Biso 1.000000     O
    O   1.0     0.450310     0.837353     0.854237  Biso 1.000000     O
    O   1.0     0.950321     0.337356     0.854235  Biso 1.000000     O
    O   1.0     0.950320     0.837355     0.854240  Biso 1.000000     O
    O   1.0     0.448158     0.365953     0.971168  Biso 1.000000     O
    O   1.0     0.448156     0.865950     0.971173  Biso 1.000000     O
    O   1.0     0.948170     0.365952     0.971171  Biso 1.000000     O
    O   1.0     0.948162     0.865952     0.971175  Biso 1.000000     O
    O   1.0     0.066103     0.499416     0.106590  Biso 1.000000     O
    O   1.0     0.066099     0.999417     0.106587  Biso 1.000000     O
    O   1.0     0.566105     0.499415     0.106587  Biso 1.000000     O
    O   1.0     0.566104     0.999416     0.106588  Biso 1.000000     O
    O   1.0     0.036117     0.424551     0.195436  Biso 1.000000     O
    O   1.0     0.036113     0.924554     0.195434  Biso 1.000000     O
    O   1.0     0.536131     0.424560     0.195439  Biso 1.000000     O
    O   1.0     0.536125     0.924556     0.195437  Biso 1.000000     O
    O   1.0     0.359040     0.469192     0.171960  Biso 1.000000     O
    O   1.0     0.359036     0.969191     0.171960  Biso 1.000000     O
    O   1.0     0.859049     0.469194     0.171955  Biso 1.000000     O
    O   1.0     0.859042     0.969192     0.171959  Biso 1.000000     O
    O   1.0     0.380753    -0.028178     0.057906  Biso 1.000000     O
    O   1.0     0.380749     0.471825     0.057906  Biso 1.000000     O
    O   1.0     0.880760    -0.028180     0.057905  Biso 1.000000     O
    O   1.0     0.880750     0.471814     0.057899  Biso 1.000000     O
    O   1.0     0.049650     0.162616     0.145641  Biso 1.000000     O
    O   1.0     0.049642     0.662617     0.145645  Biso 1.000000     O
    O   1.0     0.549653     0.162618     0.145644  Biso 1.000000     O
    O   1.0     0.549654     0.662618     0.145643  Biso 1.000000     O
    O   1.0     0.051733     0.134014     0.028690  Biso 1.000000     O
    O   1.0     0.051735     0.634013     0.028697  Biso 1.000000     O
    O   1.0     0.551744     0.134015     0.028695  Biso 1.000000     O
    O   1.0     0.551739     0.634013     0.028693  Biso 1.000000     O
   Cd   1.0     0.501427     0.462556     0.823131  Biso 1.000000    Cd
   Cd   1.0     0.501418     0.962554     0.823134  Biso 1.000000    Cd
   Cd   1.0     0.000000     0.462559     0.823134  Biso 1.000000    Cd
   Cd   1.0     0.000000     0.962556     0.823136  Biso 1.000000    Cd
   Cd   1.0    -0.001475     0.037408     0.176745  Biso 1.000000    Cd
   Cd   1.0    -0.001479     0.537408     0.176746  Biso 1.000000    Cd
   Cd   1.0     0.498534     0.037411     0.176747  Biso 1.000000    Cd
   Cd   1.0     0.498529     0.537411     0.176747  Biso 1.000000    Cd
   Cd   1.0    -0.000036    -0.000011    -0.000072  Biso 1.000000    Cd
   Cd   1.0     0.999978     0.499986    -0.000070  Biso 1.000000    Cd
   Cd   1.0     0.499972    -0.000013    -0.000072  Biso 1.000000    Cd
   Cd   1.0     0.499966     0.499987    -0.000074  Biso 1.000000    Cd
