#======================================================================

# CRYSTAL DATA

#----------------------------------------------------------------------

data_VESTA_phase_1


_pd_phase_name                         MOF
_cell_length_a                         15.82600
_cell_length_b                         15.80500
_cell_length_c                         18.63700
_cell_angle_alpha                      90.00000
_cell_angle_beta                       90.00200
_cell_angle_gamma                      89.99600
_symmetry_space_group_name_H-M         "P 1"
_symmetry_Int_Tables_number            1

loop_
_symmetry_equiv_pos_as_xyz
   "x, y, z"

loop_
   _atom_site_label
   _atom_site_occupancy
   _atom_site_fract_x
   _atom_site_fract_y
   _atom_site_fract_z
   _atom_site_adp_type
   _atom_site_B_iso_or_equiv
   _atom_site_type_symbol
    H   1.0     0.882272     0.952680     0.418657  Biso 1.000000     H
    H   1.0     0.026118     0.863334     0.380132  Biso 1.000000     H
    H   1.0     0.668348     0.652571     0.423312  Biso 1.000000     H
    H   1.0     0.737304     0.954819     0.253345  Biso 1.000000     H
    H   1.0     0.782256     0.920921     0.552129  Biso 1.000000     H
    H   1.0     0.542014     0.817217     0.509504  Biso 1.000000     H
    H   1.0     0.692165     0.908114     0.679659  Biso 1.000000     H
    H   1.0     0.573192     0.825176     0.271132  Biso 1.000000     H
    H   1.0     0.578284     0.564558     0.319475  Biso 1.000000     H
    H   1.0     0.637529     0.090142     0.209274  Biso 1.000000     H
    H   1.0     0.558300     0.009817     0.414105  Biso 1.000000     H
    H   1.0     0.811550     0.711228     0.343632  Biso 1.000000     H
    H   1.0     0.617714     0.047254     0.918544  Biso 1.000000     H
    H   1.0     0.473869     0.136605     0.880032  Biso 1.000000     H
    H   1.0     0.831720     0.347376     0.923361  Biso 1.000000     H
    H   1.0     0.762665     0.045171     0.753334  Biso 1.000000     H
    H   1.0     0.717751     0.079007     0.052117  Biso 1.000000     H
    H   1.0     0.957935     0.182849     0.009532  Biso 1.000000     H
    H   1.0     0.807837     0.091827     0.179655  Biso 1.000000     H
    H   1.0     0.926738     0.174800     0.771098  Biso 1.000000     H
    H   1.0     0.921792     0.435400     0.819542  Biso 1.000000     H
    H   1.0     0.862446     0.909859     0.709257  Biso 1.000000     H
    H   1.0     0.941633     0.990118     0.914126  Biso 1.000000     H
    H   1.0     0.688409     0.288799     0.843726  Biso 1.000000     H
    H   1.0     0.117697     0.452695     0.081349  Biso 1.000000     H
    H   1.0     0.973863     0.363355     0.119880  Biso 1.000000     H
    H   1.0     0.331482     0.152548     0.076756  Biso 1.000000     H
    H   1.0     0.262665     0.454855     0.246643  Biso 1.000000     H
    H   1.0     0.217776     0.421167     0.947891  Biso 1.000000     H
    H   1.0     0.457889     0.317102     0.990467  Biso 1.000000     H
    H   1.0     0.307868     0.408362     0.820361  Biso 1.000000     H
    H   1.0     0.426893     0.325187     0.228792  Biso 1.000000     H
    H   1.0     0.421543     0.064530     0.180597  Biso 1.000000     H
    H   1.0     0.362424     0.590164     0.290710  Biso 1.000000     H
    H   1.0     0.441707     0.509788     0.085909  Biso 1.000000     H
    H   1.0     0.188443     0.211264     0.156415  Biso 1.000000     H
    H   1.0     0.382253     0.547245     0.581467  Biso 1.000000     H
    H   1.0     0.526089     0.636587     0.619982  Biso 1.000000     H
    H   1.0     0.168251     0.847381     0.576627  Biso 1.000000     H
    H   1.0     0.237308     0.545140     0.746654  Biso 1.000000     H
    H   1.0     0.282153     0.578731     0.447910  Biso 1.000000     H
    H   1.0     0.042108     0.682953     0.490448  Biso 1.000000     H
    H   1.0     0.192069     0.591562     0.320372  Biso 1.000000     H
    H   1.0     0.073183     0.674795     0.728853  Biso 1.000000     H
    H   1.0     0.078184     0.935407     0.680455  Biso 1.000000     H
    H   1.0     0.137542     0.409841     0.790725  Biso 1.000000     H
    H   1.0     0.058293     0.490162     0.585890  Biso 1.000000     H
    H   1.0     0.311541     0.788779     0.656311  Biso 1.000000     H
    H   1.0     0.117697     0.047296     0.581332  Biso 1.000000     H
    H   1.0     0.973853     0.136643     0.619860  Biso 1.000000     H
    H   1.0     0.331588     0.347412     0.576700  Biso 1.000000     H
    H   1.0     0.262680     0.045167     0.746653  Biso 1.000000     H
    H   1.0     0.217712     0.079070     0.447862  Biso 1.000000     H
    H   1.0     0.457962     0.182754     0.490491  Biso 1.000000     H
    H   1.0     0.307805     0.091875     0.320333  Biso 1.000000     H
    H   1.0     0.426787     0.174801     0.728857  Biso 1.000000     H
    H   1.0     0.421656     0.435425     0.680535  Biso 1.000000     H
    H   1.0     0.362456     0.909845     0.790725  Biso 1.000000     H
    H   1.0     0.441664     0.990150     0.585883  Biso 1.000000     H
    H   1.0     0.188422     0.288742     0.656364  Biso 1.000000     H
    H   1.0     0.382263     0.952715     0.081429  Biso 1.000000     H
    H   1.0     0.526107     0.863365     0.119938  Biso 1.000000     H
    H   1.0     0.168232     0.652608     0.076621  Biso 1.000000     H
    H   1.0     0.237305     0.954806     0.246660  Biso 1.000000     H
    H   1.0     0.282228     0.920961     0.947874  Biso 1.000000     H
    H   1.0     0.042035     0.817139     0.990462  Biso 1.000000     H
    H   1.0     0.192140     0.908144     0.820336  Biso 1.000000     H
    H   1.0     0.073247     0.825179     0.228902  Biso 1.000000     H
    H   1.0     0.078157     0.564584     0.180439  Biso 1.000000     H
    H   1.0     0.137522     0.090116     0.290738  Biso 1.000000     H
    H   1.0     0.058345     0.009864     0.085864  Biso 1.000000     H
    H   1.0     0.311565     0.711189     0.156285  Biso 1.000000     H
    H   1.0     0.882277     0.547290     0.918655  Biso 1.000000     H
    H   1.0     0.026112     0.636630     0.880125  Biso 1.000000     H
    H   1.0     0.668474     0.847425     0.923245  Biso 1.000000     H
    H   1.0     0.737298     0.545132     0.753342  Biso 1.000000     H
    H   1.0     0.782196     0.578806     0.052103  Biso 1.000000     H
    H   1.0     0.542084     0.682873     0.009524  Biso 1.000000     H
    H   1.0     0.692104     0.591614     0.179633  Biso 1.000000     H
    H   1.0     0.573081     0.674788     0.771200  Biso 1.000000     H
    H   1.0     0.578413     0.935443     0.819403  Biso 1.000000     H
    H   1.0     0.637536     0.409825     0.709275  Biso 1.000000     H
    H   1.0     0.558266     0.490191     0.914082  Biso 1.000000     H
    H   1.0     0.811529     0.788711     0.843566  Biso 1.000000     H
    H   1.0     0.617712     0.452730     0.418540  Biso 1.000000     H
    H   1.0     0.473878     0.363386     0.380021  Biso 1.000000     H
    H   1.0     0.831705     0.152598     0.423356  Biso 1.000000     H
    H   1.0     0.762656     0.454846     0.253342  Biso 1.000000     H
    H   1.0     0.717813     0.421227     0.552085  Biso 1.000000     H
    H   1.0     0.957871     0.317037     0.509542  Biso 1.000000     H
    H   1.0     0.807897     0.408395     0.679623  Biso 1.000000     H
    H   1.0     0.926780     0.325184     0.271132  Biso 1.000000     H
    H   1.0     0.921778     0.064570     0.319532  Biso 1.000000     H
    H   1.0     0.862426     0.590141     0.209269  Biso 1.000000     H
    H   1.0     0.941685     0.509812     0.414098  Biso 1.000000     H
    H   1.0     0.688433     0.211209     0.343673  Biso 1.000000     H
    C   1.0     0.888742     0.889121     0.397407  Biso 1.000000     C
    C   1.0     0.960147     0.844844     0.378120  Biso 1.000000     C
    C   1.0     0.635166     0.675481     0.376228  Biso 1.000000     C
    C   1.0     0.685191     0.986285     0.280138  Biso 1.000000     C
    C   1.0     0.718563     0.898457     0.562041  Biso 1.000000     C
    C   1.0     0.594761     0.844939     0.538379  Biso 1.000000     C
    C   1.0     0.674004     0.892214     0.625190  Biso 1.000000     C
    C   1.0     0.586734     0.766048     0.298401  Biso 1.000000     C
    C   1.0     0.590443     0.631818     0.324815  Biso 1.000000     C
    C   1.0     0.635777     0.053215     0.258317  Biso 1.000000     C
    C   1.0     0.593553     0.013262     0.364249  Biso 1.000000     C
    C   1.0     0.850411     0.764836     0.358922  Biso 1.000000     C
    C   1.0     0.611238     0.110835     0.897340  Biso 1.000000     C
    C   1.0     0.539831     0.155113     0.878060  Biso 1.000000     C
    C   1.0     0.864874     0.324474     0.876261  Biso 1.000000     C
    C   1.0     0.814771     0.013695     0.780133  Biso 1.000000     C
    C   1.0     0.781431     0.101503     0.062039  Biso 1.000000     C
    C   1.0     0.905203     0.155090     0.038398  Biso 1.000000     C
    C   1.0     0.825989     0.107754     0.125190  Biso 1.000000     C
    C   1.0     0.913232     0.233921     0.798391  Biso 1.000000     C
    C   1.0     0.909602     0.368143     0.824859  Biso 1.000000     C
    C   1.0     0.864189     0.946771     0.758308  Biso 1.000000     C
    C   1.0     0.906392     0.986689     0.864261  Biso 1.000000     C
    C   1.0     0.649554     0.235166     0.858962  Biso 1.000000     C
    C   1.0     0.111235     0.389140     0.102608  Biso 1.000000     C
    C   1.0     0.039836     0.344866     0.121898  Biso 1.000000     C
    C   1.0     0.364719     0.175464     0.123809  Biso 1.000000     C
    C   1.0     0.314783     0.486310     0.219855  Biso 1.000000     C
    C   1.0     0.281442     0.398624     0.937969  Biso 1.000000     C
    C   1.0     0.405177     0.344919     0.961607  Biso 1.000000     C
    C   1.0     0.326003     0.392384     0.874820  Biso 1.000000     C
    C   1.0     0.413282     0.266050     0.201564  Biso 1.000000     C
    C   1.0     0.409439     0.131799     0.175225  Biso 1.000000     C
    C   1.0     0.364193     0.553226     0.241673  Biso 1.000000     C
    C   1.0     0.406443     0.513246     0.135759  Biso 1.000000     C
    C   1.0     0.149575     0.264868     0.141114  Biso 1.000000     C
    C   1.0     0.388724     0.610821     0.602677  Biso 1.000000     C
    C   1.0     0.460126     0.655098     0.621959  Biso 1.000000     C
    C   1.0     0.135088     0.824479     0.623719  Biso 1.000000     C
    C   1.0     0.185196     0.513676     0.719861  Biso 1.000000     C
    C   1.0     0.218502     0.601313     0.437980  Biso 1.000000     C
    C   1.0     0.094803     0.655096     0.461596  Biso 1.000000     C
    C   1.0     0.173945     0.607567     0.374828  Biso 1.000000     C
    C   1.0     0.086703     0.733918     0.701573  Biso 1.000000     C
    C   1.0     0.090362     0.868147     0.675128  Biso 1.000000     C
    C   1.0     0.135781     0.446767     0.741681  Biso 1.000000     C
    C   1.0     0.093549     0.486716     0.635747  Biso 1.000000     C
    C   1.0     0.350401     0.735148     0.641068  Biso 1.000000     C
    C   1.0     0.111228     0.110854     0.602583  Biso 1.000000     C
    C   1.0     0.039824     0.155131     0.621872  Biso 1.000000     C
    C   1.0     0.364781     0.324501     0.623778  Biso 1.000000     C
    C   1.0     0.314789     0.013698     0.719858  Biso 1.000000     C
    C   1.0     0.281407     0.101529     0.437950  Biso 1.000000     C
    C   1.0     0.405213     0.155036     0.461615  Biso 1.000000     C
    C   1.0     0.325967     0.107771     0.374802  Biso 1.000000     C
    C   1.0     0.413234     0.233931     0.701594  Biso 1.000000     C
    C   1.0     0.409505     0.368163     0.675190  Biso 1.000000     C
    C   1.0     0.364204     0.946768     0.741679  Biso 1.000000     C
    C   1.0     0.406417     0.986710     0.635742  Biso 1.000000     C
    C   1.0     0.149560     0.235135     0.641072  Biso 1.000000     C
    C   1.0     0.388738     0.889139     0.102640  Biso 1.000000     C
    C   1.0     0.460145     0.844860     0.121920  Biso 1.000000     C
    C   1.0     0.135085     0.675508     0.123724  Biso 1.000000     C
    C   1.0     0.185200     0.986282     0.219861  Biso 1.000000     C
    C   1.0     0.218545     0.898470     0.937953  Biso 1.000000     C
    C   1.0     0.094769     0.844893     0.961596  Biso 1.000000     C
    C   1.0     0.173987     0.892220     0.874801  Biso 1.000000     C
    C   1.0     0.086745     0.766059     0.201605  Biso 1.000000     C
    C   1.0     0.090356     0.631840     0.175126  Biso 1.000000     C
    C   1.0     0.135782     0.053205     0.241686  Biso 1.000000     C
    C   1.0     0.093584     0.013291     0.135730  Biso 1.000000     C
    C   1.0     0.350421     0.764817     0.141039  Biso 1.000000     C
    C   1.0     0.888739     0.610842     0.897391  Biso 1.000000     C
    C   1.0     0.960138     0.655117     0.878102  Biso 1.000000     C
    C   1.0     0.635242     0.824510     0.876191  Biso 1.000000     C
    C   1.0     0.685182     0.513675     0.780131  Biso 1.000000     C
    C   1.0     0.718530     0.601350     0.062024  Biso 1.000000     C
    C   1.0     0.594796     0.655055     0.038385  Biso 1.000000     C
    C   1.0     0.673970     0.607592     0.125173  Biso 1.000000     C
    C   1.0     0.586688     0.733924     0.798431  Biso 1.000000     C
    C   1.0     0.590522     0.868175     0.824774  Biso 1.000000     C
    C   1.0     0.635770     0.446761     0.758313  Biso 1.000000     C
    C   1.0     0.593527     0.486735     0.864231  Biso 1.000000     C
    C   1.0     0.850397     0.735110     0.858872  Biso 1.000000     C
    C   1.0     0.611244     0.389156     0.397325  Biso 1.000000     C
    C   1.0     0.539843     0.344879     0.378040  Biso 1.000000     C
    C   1.0     0.864872     0.175500     0.376266  Biso 1.000000     C
    C   1.0     0.814772     0.486306     0.280133  Biso 1.000000     C
    C   1.0     0.781467     0.398652     0.562014  Biso 1.000000     C
    C   1.0     0.905173     0.344886     0.538395  Biso 1.000000     C
    C   1.0     0.826024     0.392398     0.625167  Biso 1.000000     C
    C   1.0     0.913258     0.266060     0.298412  Biso 1.000000     C
    C   1.0     0.909600     0.131831     0.324859  Biso 1.000000     C
    C   1.0     0.864188     0.553214     0.258312  Biso 1.000000     C
    C   1.0     0.906428     0.513259     0.364242  Biso 1.000000     C
    C   1.0     0.649571     0.264837     0.358922  Biso 1.000000     C
    N   1.0     0.819163     0.837973     0.385128  Biso 1.000000     N
    N   1.0     0.632635     0.760799     0.359225  Biso 1.000000     N
    N   1.0     0.658140     0.961187     0.347548  Biso 1.000000     N
    N   1.0     0.668012     0.868386     0.506997  Biso 1.000000     N
    N   1.0     0.595395     0.858253     0.609871  Biso 1.000000     N
    N   1.0     0.559631     0.689753     0.275549  Biso 1.000000     N
    N   1.0     0.577567     0.070061     0.311964  Biso 1.000000     N
    N   1.0     0.935409     0.765876     0.353702  Biso 1.000000     N
    N   1.0     0.680812     0.162011     0.885125  Biso 1.000000     N
    N   1.0     0.867358     0.239163     0.859227  Biso 1.000000     N
    N   1.0     0.841810     0.038770     0.847553  Biso 1.000000     N
    N   1.0     0.831966     0.131616     0.007004  Biso 1.000000     N
    N   1.0     0.904581     0.141760     0.109888  Biso 1.000000     N
    N   1.0     0.940366     0.310216     0.775565  Biso 1.000000     N
    N   1.0     0.922385     0.929907     0.811965  Biso 1.000000     N
    N   1.0     0.564559     0.234113     0.853710  Biso 1.000000     N
    N   1.0     0.180822     0.337997     0.114898  Biso 1.000000     N
    N   1.0     0.367341     0.260793     0.140763  Biso 1.000000     N
    N   1.0     0.341849     0.461195     0.152454  Biso 1.000000     N
    N   1.0     0.331950     0.368431     0.992997  Biso 1.000000     N
    N   1.0     0.404569     0.358305     0.890124  Biso 1.000000     N
    N   1.0     0.440337     0.189745     0.224440  Biso 1.000000     N
    N   1.0     0.422419     0.570056     0.188037  Biso 1.000000     N
    N   1.0     0.064577     0.265901     0.146330  Biso 1.000000     N
    N   1.0     0.319146     0.661997     0.614901  Biso 1.000000     N
    N   1.0     0.132583     0.739165     0.640741  Biso 1.000000     N
    N   1.0     0.158139     0.538771     0.652449  Biso 1.000000     N
    N   1.0     0.168015     0.631550     0.493000  Biso 1.000000     N
    N   1.0     0.095399     0.641697     0.390115  Biso 1.000000     N
    N   1.0     0.059583     0.810218     0.724409  Biso 1.000000     N
    N   1.0     0.077567     0.429922     0.688035  Biso 1.000000     N
    N   1.0     0.435397     0.734096     0.646320  Biso 1.000000     N
    N   1.0     0.180809     0.162000     0.614864  Biso 1.000000     N
    N   1.0     0.367327     0.239181     0.640774  Biso 1.000000     N
    N   1.0     0.341833     0.038789     0.652445  Biso 1.000000     N
    N   1.0     0.331960     0.131594     0.492995  Biso 1.000000     N
    N   1.0     0.404578     0.141726     0.390123  Biso 1.000000     N
    N   1.0     0.440333     0.310227     0.724447  Biso 1.000000     N
    N   1.0     0.422408     0.929916     0.688030  Biso 1.000000     N
    N   1.0     0.064563     0.234098     0.646293  Biso 1.000000     N
    N   1.0     0.319163     0.837969     0.114868  Biso 1.000000     N
    N   1.0     0.132611     0.760817     0.140766  Biso 1.000000     N
    N   1.0     0.158164     0.961208     0.152439  Biso 1.000000     N
    N   1.0     0.168009     0.868363     0.992989  Biso 1.000000     N
    N   1.0     0.095394     0.858220     0.890106  Biso 1.000000     N
    N   1.0     0.059603     0.689765     0.224427  Biso 1.000000     N
    N   1.0     0.077588     0.070070     0.188028  Biso 1.000000     N
    N   1.0     0.435417     0.765865     0.146282  Biso 1.000000     N
    N   1.0     0.819151     0.661982     0.885094  Biso 1.000000     N
    N   1.0     0.632627     0.739181     0.859233  Biso 1.000000     N
    N   1.0     0.658122     0.538785     0.847535  Biso 1.000000     N
    N   1.0     0.668024     0.631543     0.006995  Biso 1.000000     N
    N   1.0     0.595405     0.641671     0.109868  Biso 1.000000     N
    N   1.0     0.559630     0.810229     0.775556  Biso 1.000000     N
    N   1.0     0.577549     0.429926     0.811952  Biso 1.000000     N
    N   1.0     0.935396     0.734078     0.853662  Biso 1.000000     N
    N   1.0     0.680824     0.337986     0.385095  Biso 1.000000     N
    N   1.0     0.867379     0.260814     0.359244  Biso 1.000000     N
    N   1.0     0.841832     0.461210     0.347543  Biso 1.000000     N
    N   1.0     0.831958     0.368425     0.506993  Biso 1.000000     N
    N   1.0     0.904574     0.358278     0.609877  Biso 1.000000     N
    N   1.0     0.940383     0.189761     0.275581  Biso 1.000000     N
    N   1.0     0.922406     0.570056     0.311956  Biso 1.000000     N
    N   1.0     0.564574     0.265885     0.353672  Biso 1.000000     N
   Zn   1.0     0.696097     0.858899     0.402842  Biso 1.000000    Zn
   Zn   1.0     0.503817     0.832961     0.681260  Biso 1.000000    Zn
   Zn   1.0     0.803879     0.141074     0.902837  Biso 1.000000    Zn
   Zn   1.0     0.996169     0.167024     0.181274  Biso 1.000000    Zn
   Zn   1.0     0.303886     0.358911     0.097158  Biso 1.000000    Zn
   Zn   1.0     0.496148     0.332973     0.818738  Biso 1.000000    Zn
   Zn   1.0     0.196087     0.641065     0.597159  Biso 1.000000    Zn
   Zn   1.0     0.003818     0.667010     0.318728  Biso 1.000000    Zn
   Zn   1.0     0.303879     0.141078     0.597151  Biso 1.000000    Zn
   Zn   1.0     0.496159     0.167016     0.318734  Biso 1.000000    Zn
   Zn   1.0     0.196097     0.858903     0.097156  Biso 1.000000    Zn
   Zn   1.0     0.003807     0.832953     0.818720  Biso 1.000000    Zn
   Zn   1.0     0.696090     0.641065     0.902835  Biso 1.000000    Zn
   Zn   1.0     0.503828     0.667004     0.181255  Biso 1.000000    Zn
   Zn   1.0     0.803886     0.358915     0.402834  Biso 1.000000    Zn
   Zn   1.0     0.996157     0.332967     0.681264  Biso 1.000000    Zn
