#======================================================================

# CRYSTAL DATA

#----------------------------------------------------------------------

data_VESTA_phase_1


_pd_phase_name                         MOF
_cell_length_a                         16.33900
_cell_length_b                         16.30500
_cell_length_c                         16.29900
_cell_angle_alpha                      120.14200
_cell_angle_beta                       119.92200
_cell_angle_gamma                      90.61000
_symmetry_space_group_name_H-M         "P 1"
_symmetry_Int_Tables_number            1

loop_
_symmetry_equiv_pos_as_xyz
   "x, y, z"

loop_
   _atom_site_label
   _atom_site_occupancy
   _atom_site_fract_x
   _atom_site_fract_y
   _atom_site_fract_z
   _atom_site_adp_type
   _atom_site_B_iso_or_equiv
   _atom_site_type_symbol
    H   1.0     0.097221     0.663854     0.867112  Biso 1.000000     H
    H   1.0     0.059008     0.815655     0.143289  Biso 1.000000     H
    H   1.0     0.228875     0.884250     0.931566  Biso 1.000000     H
    H   1.0     0.317660     0.836019    -0.006433  Biso 1.000000     H
    H   1.0     0.200482     0.751199     0.855830  Biso 1.000000     H
    H   1.0     0.031385     0.587209    -0.019505  Biso 1.000000     H
    H   1.0     0.936735     0.642640     0.960156  Biso 1.000000     H
    H   1.0     0.957216     0.578388     0.849853  Biso 1.000000     H
    H   1.0     0.259146     0.020864     0.346037  Biso 1.000000     H
    H   1.0     0.193231     0.067269     0.263971  Biso 1.000000     H
    H   1.0     0.128620     0.990836     0.277016  Biso 1.000000     H
    H   1.0     0.621170     0.121958     0.114123  Biso 1.000000     H
    H   1.0     0.674648     0.024491     0.079007  Biso 1.000000     H
    H   1.0     0.397177     0.975220     0.814638  Biso 1.000000     H
    H   1.0     0.454532     0.091965     0.956134  Biso 1.000000     H
    H   1.0     0.272441     0.204548     0.875271  Biso 1.000000     H
    H   1.0     0.588100     0.330973     0.152227  Biso 1.000000     H
    H   1.0     0.204377     0.044615     0.933928  Biso 1.000000     H
    H   1.0     0.177699     0.155164    -0.002655  Biso 1.000000     H
    H   1.0     0.157063     0.102729     0.860381  Biso 1.000000     H
    H   1.0     0.451867     0.397459    -0.007831  Biso 1.000000     H
    H   1.0     0.528019     0.323537     0.973248  Biso 1.000000     H
    H   1.0     0.396976     0.274539     0.860929  Biso 1.000000     H
    H   1.0     0.591882     0.328175     0.351594  Biso 1.000000     H
    H   1.0     0.572795     0.197815     0.268852  Biso 1.000000     H
    H   1.0     0.651784     0.285877     0.281346  Biso 1.000000     H
    H   1.0     0.990982     0.993475     0.112517  Biso 1.000000     H
    H   1.0     0.904559     0.057682     0.078313  Biso 1.000000     H
    H   1.0     0.914977     0.837576     0.813473  Biso 1.000000     H
    H   1.0    -0.001881     0.862576     0.954288  Biso 1.000000     H
    H   1.0     0.167669     0.767441     0.374002  Biso 1.000000     H
    H   1.0     0.322179     0.085110     0.649832  Biso 1.000000     H
    H   1.0     0.385115     0.701342     0.433721  Biso 1.000000     H
    H   1.0     0.338274     0.674665     0.497645  Biso 1.000000     H
    H   1.0     0.252820     0.652935     0.360449  Biso 1.000000     H
    H   1.0     0.093642     0.946495     0.488819  Biso 1.000000     H
    H   1.0     0.149617     0.022531     0.469236  Biso 1.000000     H
    H   1.0     0.084714     0.890530     0.357877  Biso 1.000000     H
    H   1.0     0.525956     0.090465     0.850585  Biso 1.000000     H
    H   1.0     0.571879     0.073262     0.767369  Biso 1.000000     H
    H   1.0     0.497009     0.151016     0.780976  Biso 1.000000     H
    H   1.0     0.620769     0.493922     0.613214  Biso 1.000000     H
    H   1.0     0.522925     0.403298     0.577338  Biso 1.000000     H
    H   1.0     0.475504     0.417796     0.314481  Biso 1.000000     H
    H   1.0     0.591821     0.503453     0.455904  Biso 1.000000     H
    H   1.0     0.706619     0.607331     0.376329  Biso 1.000000     H
    H   1.0     0.827739     0.567020     0.650154  Biso 1.000000     H
    H   1.0     0.547397     0.732183     0.436025  Biso 1.000000     H
    H   1.0     0.658122     0.823460     0.498743  Biso 1.000000     H
    H   1.0     0.604813     0.705820     0.361438  Biso 1.000000     H
    H   1.0     0.897355     0.547342     0.492630  Biso 1.000000     H
    H   1.0     0.823083     0.449974     0.472456  Biso 1.000000     H
    H   1.0     0.775370     0.468720     0.360866  Biso 1.000000     H
    H   1.0     0.822837     0.761523     0.849941  Biso 1.000000     H
    H   1.0     0.692816     0.694892     0.764626  Biso 1.000000     H
    H   1.0     0.780580     0.630021     0.777591  Biso 1.000000     H
    H   1.0     0.493707     0.121954     0.612626  Biso 1.000000     H
    H   1.0     0.556704     0.174838     0.576741  Biso 1.000000     H
    H   1.0     0.337894     0.894575     0.314310  Biso 1.000000     H
    H   1.0     0.363419     0.953617     0.455735  Biso 1.000000     H
    H   1.0     0.902775     0.336164     0.132862  Biso 1.000000     H
    H   1.0     0.940978     0.184362     0.856693  Biso 1.000000     H
    H   1.0     0.771123     0.115783     0.068416  Biso 1.000000     H
    H   1.0     0.682318     0.164004     0.000000  Biso 1.000000     H
    H   1.0     0.799509     0.248835     0.144152  Biso 1.000000     H
    H   1.0     0.968601     0.412808     0.000000  Biso 1.000000     H
    H   1.0     0.063259     0.357377     0.039819  Biso 1.000000     H
    H   1.0     0.042774     0.421637     0.150125  Biso 1.000000     H
    H   1.0     0.740819     0.979146     0.653928  Biso 1.000000     H
    H   1.0     0.806763     0.932762     0.736019  Biso 1.000000     H
    H   1.0     0.871355     0.009191     0.722953  Biso 1.000000     H
    H   1.0     0.378809     0.878070     0.885856  Biso 1.000000     H
    H   1.0     0.325333     0.975549     0.920986  Biso 1.000000     H
    H   1.0     0.602819     0.024829     0.185371  Biso 1.000000     H
    H   1.0     0.545469     0.908069     0.043871  Biso 1.000000     H
    H   1.0     0.727549     0.795482     0.124712  Biso 1.000000     H
    H   1.0     0.411883     0.669074     0.847769  Biso 1.000000     H
    H   1.0     0.795611     0.955407     0.066039  Biso 1.000000     H
    H   1.0     0.822290     0.844855     0.000000  Biso 1.000000     H
    H   1.0     0.842922     0.897310     0.139604  Biso 1.000000     H
    H   1.0     0.548086     0.602568     0.000000  Biso 1.000000     H
    H   1.0     0.471978     0.676528     0.026768  Biso 1.000000     H
    H   1.0     0.603024     0.725478     0.139053  Biso 1.000000     H
    H   1.0     0.408133     0.671882     0.648401  Biso 1.000000     H
    H   1.0     0.427173     0.802228     0.731147  Biso 1.000000     H
    H   1.0     0.348196     0.714119     0.718612  Biso 1.000000     H
    H   1.0     0.008999     0.006566     0.887472  Biso 1.000000     H
    H   1.0     0.095418     0.942361     0.921679  Biso 1.000000     H
    H   1.0     0.084998     0.162464     0.186509  Biso 1.000000     H
    H   1.0     0.000000     0.137464     0.045698  Biso 1.000000     H
    H   1.0     0.832312     0.232605     0.625980  Biso 1.000000     H
    H   1.0     0.677817     0.914915     0.350142  Biso 1.000000     H
    H   1.0     0.614855     0.298682     0.566265  Biso 1.000000     H
    H   1.0     0.661706     0.325371     0.502357  Biso 1.000000     H
    H   1.0     0.747141     0.347076     0.639524  Biso 1.000000     H
    H   1.0     0.906313     0.053468     0.511111  Biso 1.000000     H
    H   1.0     0.850355     0.977524     0.530783  Biso 1.000000     H
    H   1.0     0.915294     0.109520     0.642093  Biso 1.000000     H
    H   1.0     0.474028     0.909566     0.149401  Biso 1.000000     H
    H   1.0     0.428109     0.926762     0.232605  Biso 1.000000     H
    H   1.0     0.502970     0.849001     0.218990  Biso 1.000000     H
    H   1.0     0.379215     0.506100     0.386763  Biso 1.000000     H
    H   1.0     0.477068     0.596724     0.422649  Biso 1.000000     H
    H   1.0     0.524477     0.582221     0.685498  Biso 1.000000     H
    H   1.0     0.408161     0.496561     0.544074  Biso 1.000000     H
    H   1.0     0.293360     0.392700     0.623656  Biso 1.000000     H
    H   1.0     0.172248     0.433014     0.349835  Biso 1.000000     H
    H   1.0     0.452580     0.267842     0.563954  Biso 1.000000     H
    H   1.0     0.341855     0.176570     0.501240  Biso 1.000000     H
    H   1.0     0.395170     0.294209     0.638548  Biso 1.000000     H
    H   1.0     0.102631     0.452689     0.507366  Biso 1.000000     H
    H   1.0     0.176889     0.550052     0.527520  Biso 1.000000     H
    H   1.0     0.224618     0.531319     0.639122  Biso 1.000000     H
    H   1.0     0.177146     0.238509     0.150047  Biso 1.000000     H
    H   1.0     0.307168     0.305133     0.235362  Biso 1.000000     H
    H   1.0     0.219410     0.370010     0.222398  Biso 1.000000     H
    H   1.0     0.506268     0.878082     0.387355  Biso 1.000000     H
    H   1.0     0.443272     0.825192     0.423244  Biso 1.000000     H
    H   1.0     0.662084     0.105466     0.685692  Biso 1.000000     H
    H   1.0     0.636569     0.046428     0.544264  Biso 1.000000     H
   Li   1.0     0.405398     0.045946     0.162545  Biso 1.000000    Li
   Li   1.0     0.258376     0.114166     0.162929  Biso 1.000000    Li
   Li   1.0     0.546437     0.758227     0.663460  Biso 1.000000    Li
   Li   1.0     0.616612     0.907739     0.665136  Biso 1.000000    Li
   Li   1.0     0.594578     0.954079     0.837423  Biso 1.000000    Li
   Li   1.0     0.741604     0.885871     0.837057  Biso 1.000000    Li
   Li   1.0     0.453543     0.241799     0.336522  Biso 1.000000    Li
   Li   1.0     0.383363     0.092287     0.334842  Biso 1.000000    Li
    C   1.0     0.218191     0.910524     0.108545  Biso 1.000000     C
    C   1.0     0.190002     0.820675     0.001406  Biso 1.000000     C
    C   1.0     0.117705     0.731604     0.949864  Biso 1.000000     C
    C   1.0     0.070357     0.726500    -0.000304  Biso 1.000000     C
    C   1.0     0.096455     0.815989     0.103392  Biso 1.000000     C
    C   1.0     0.167651     0.907150     0.157704  Biso 1.000000     C
    C   1.0     0.236478     0.822788     0.942612  Biso 1.000000     C
    C   1.0     0.995112     0.628950     0.944778  Biso 1.000000     C
    C   1.0     0.188122     0.001221     0.266044  Biso 1.000000     C
    C   1.0     0.604682     0.039631     0.061851  Biso 1.000000     C
    C   1.0     0.444041     0.010835     0.908950  Biso 1.000000     C
    C   1.0     0.392856     0.197535     0.112962  Biso 1.000000     C
    C   1.0     0.313752     0.180413     0.006707  Biso 1.000000     C
    C   1.0     0.334870     0.219474     0.957392  Biso 1.000000     C
    C   1.0     0.432651     0.275740     0.008652  Biso 1.000000     C
    C   1.0     0.510364     0.289689     0.111365  Biso 1.000000     C
    C   1.0     0.493121     0.251393     0.163520  Biso 1.000000     C
    C   1.0     0.207984     0.117910     0.946530  Biso 1.000000     C
    C   1.0     0.453409     0.319865     0.956065  Biso 1.000000     C
    C   1.0     0.581305     0.265963     0.271148  Biso 1.000000     C
    C   1.0     0.956799     0.023945     0.061196  Biso 1.000000     C
    C   1.0     0.962996     0.896955     0.907971  Biso 1.000000     C
    C   1.0     0.414219     0.890949     0.612567  Biso 1.000000     C
    C   1.0     0.324032     0.810612     0.506221  Biso 1.000000     C
    C   1.0     0.235751     0.830694     0.456174  Biso 1.000000     C
    C   1.0     0.231838     0.928446     0.506586  Biso 1.000000     C
    C   1.0     0.321637     0.007322     0.609504  Biso 1.000000     C
    C   1.0     0.412061    -0.008772     0.662448  Biso 1.000000     C
    C   1.0     0.324764     0.704644     0.446516  Biso 1.000000     C
    C   1.0     0.135227     0.948005     0.452917  Biso 1.000000     C
    C   1.0     0.506440     0.080456     0.770187  Biso 1.000000     C
    C   1.0     0.538706     0.456988     0.560966  Biso 1.000000     C
    C   1.0     0.510937     0.465526     0.408843  Biso 1.000000     C
    C   1.0     0.697370     0.722896     0.613004  Biso 1.000000     C
    C   1.0     0.681480     0.696316     0.507372  Biso 1.000000     C
    C   1.0     0.720490     0.626556     0.457906  Biso 1.000000     C
    C   1.0     0.775447     0.580126     0.508390  Biso 1.000000     C
    C   1.0     0.787741     0.604093     0.610122  Biso 1.000000     C
    C   1.0     0.749321     0.672711     0.662288  Biso 1.000000     C
    C   1.0     0.620217     0.741626     0.447880  Biso 1.000000     C
    C   1.0     0.819858     0.507859     0.455903  Biso 1.000000     C
    C   1.0     0.761465     0.690624     0.768352  Biso 1.000000     C
    C   1.0     0.523547     0.104978     0.560522  Biso 1.000000     C
    C   1.0     0.397270     0.942704     0.408716  Biso 1.000000     C
    C   1.0     0.781791     0.089510     0.891431  Biso 1.000000     C
    C   1.0     0.810005     0.179344     0.998594  Biso 1.000000     C
    C   1.0     0.882272     0.268419     0.050096  Biso 1.000000     C
    C   1.0     0.929644     0.273528     0.000000  Biso 1.000000     C
    C   1.0     0.903517     0.184036     0.896577  Biso 1.000000     C
    C   1.0     0.832352     0.092860     0.842284  Biso 1.000000     C
    C   1.0     0.763501     0.177244     0.057368  Biso 1.000000     C
    C   1.0     0.004885     0.371079     0.055201  Biso 1.000000     C
    C   1.0     0.811850     0.998796     0.733917  Biso 1.000000     C
    C   1.0     0.395291     0.960395     0.938128  Biso 1.000000     C
    C   1.0     0.555959     0.989198     0.091057  Biso 1.000000     C
    C   1.0     0.607129     0.802503     0.887026  Biso 1.000000     C
    C   1.0     0.686233     0.819623     0.993279  Biso 1.000000     C
    C   1.0     0.665118     0.780559     0.042595  Biso 1.000000     C
    C   1.0     0.567336     0.724301     0.991338  Biso 1.000000     C
    C   1.0     0.489620     0.710353     0.888627  Biso 1.000000     C
    C   1.0     0.506864     0.748647     0.836472  Biso 1.000000     C
    C   1.0     0.792002     0.882117     0.053449  Biso 1.000000     C
    C   1.0     0.546576     0.680173     0.043921  Biso 1.000000     C
    C   1.0     0.418682     0.734071     0.728839  Biso 1.000000     C
    C   1.0     0.043180     0.976100     0.938798  Biso 1.000000     C
    C   1.0     0.036982     0.103083     0.092012  Biso 1.000000     C
    C   1.0     0.585764     0.109100     0.387427  Biso 1.000000     C
    C   1.0     0.675976     0.189417     0.493753  Biso 1.000000     C
    C   1.0     0.764247     0.169325     0.543816  Biso 1.000000     C
    C   1.0     0.768124     0.071561     0.493356  Biso 1.000000     C
    C   1.0     0.678319     0.992689     0.390449  Biso 1.000000     C
    C   1.0     0.587919     0.000000     0.337514  Biso 1.000000     C
    C   1.0     0.675197     0.295365     0.553457  Biso 1.000000     C
    C   1.0     0.864748     0.052032     0.547060  Biso 1.000000     C
    C   1.0     0.493552     0.919569     0.229799  Biso 1.000000     C
    C   1.0     0.461279     0.543033     0.439016  Biso 1.000000     C
    C   1.0     0.489045     0.534492     0.591136  Biso 1.000000     C
    C   1.0     0.302618     0.277137     0.386986  Biso 1.000000     C
    C   1.0     0.318495     0.303710     0.492610  Biso 1.000000     C
    C   1.0     0.279490     0.373475     0.542079  Biso 1.000000     C
    C   1.0     0.224537     0.419908     0.491598  Biso 1.000000     C
    C   1.0     0.212240     0.395937     0.389863  Biso 1.000000     C
    C   1.0     0.250660     0.327318     0.337698  Biso 1.000000     C
    C   1.0     0.379762     0.258403     0.552103  Biso 1.000000     C
    C   1.0     0.180124     0.492173     0.544084  Biso 1.000000     C
    C   1.0     0.238520     0.309406     0.231636  Biso 1.000000     C
    C   1.0     0.476428     0.895048     0.439457  Biso 1.000000     C
    C   1.0     0.602719     0.057340     0.591283  Biso 1.000000     C
    O   1.0     0.373307     0.162044     0.162526  Biso 1.000000     O
    O   1.0     0.540781     0.998954     0.939436  Biso 1.000000     O
    O   1.0     0.288831     0.996397     0.160166  Biso 1.000000     O
    O   1.0     0.897437     0.941313     0.938412  Biso 1.000000     O
    O   1.0     0.662324     0.791720     0.662982  Biso 1.000000     O
    O   1.0     0.498383     0.398361     0.438534  Biso 1.000000     O
    O   1.0     0.499330     0.872628     0.662866  Biso 1.000000     O
    O   1.0     0.440834     0.039423     0.438002  Biso 1.000000     O
    O   1.0     0.626676     0.837989     0.837457  Biso 1.000000     O
    O   1.0     0.459210     0.001066     0.060541  Biso 1.000000     O
    O   1.0     0.711145     0.003642     0.839810  Biso 1.000000     O
    O   1.0     0.102548     0.058730     0.061583  Biso 1.000000     O
    O   1.0     0.337654     0.208304     0.337003  Biso 1.000000     O
    O   1.0     0.501603     0.601659     0.561449  Biso 1.000000     O
    O   1.0     0.500642     0.127400     0.337112  Biso 1.000000     O
    O   1.0     0.559140     0.960616     0.561977  Biso 1.000000     O
