#======================================================================

# CRYSTAL DATA

#----------------------------------------------------------------------

data_VESTA_phase_1


_pd_phase_name                         MOF
_cell_length_a                         19.79700
_cell_length_b                         19.80000
_cell_length_c                         15.41800
_cell_angle_alpha                      74.15100
_cell_angle_beta                       74.16400
_cell_angle_gamma                      82.48300
_symmetry_space_group_name_H-M         "P 1"
_symmetry_Int_Tables_number            1

loop_
_symmetry_equiv_pos_as_xyz
   "x, y, z"

loop_
   _atom_site_label
   _atom_site_occupancy
   _atom_site_fract_x
   _atom_site_fract_y
   _atom_site_fract_z
   _atom_site_adp_type
   _atom_site_B_iso_or_equiv
   _atom_site_type_symbol
    O   1.0     0.105859     0.419497     0.118149  Biso 1.000000     O
    O   1.0     0.105862     0.919492     0.118149  Biso 1.000000     O
    O   1.0     0.605862     0.419497     0.118149  Biso 1.000000     O
    O   1.0     0.605865     0.919492     0.118149  Biso 1.000000     O
    O   1.0     0.426032     0.243170     0.114734  Biso 1.000000     O
    O   1.0     0.426035     0.743165     0.114735  Biso 1.000000     O
    O   1.0     0.926035     0.243170     0.114735  Biso 1.000000     O
    O   1.0     0.926038     0.743165     0.114734  Biso 1.000000     O
    O   1.0     0.340056     0.006244     0.122728  Biso 1.000000     O
    O   1.0     0.340058     0.506240     0.122728  Biso 1.000000     O
    O   1.0     0.840059     0.006245     0.122728  Biso 1.000000     O
    O   1.0     0.840061     0.506239     0.122728  Biso 1.000000     O
    O   1.0     0.127037     0.498418     0.211671  Biso 1.000000     O
    O   1.0     0.127039     0.998413     0.211670  Biso 1.000000     O
    O   1.0     0.627040     0.498418     0.211670  Biso 1.000000     O
    O   1.0     0.627042     0.998413     0.211670  Biso 1.000000     O
    O   1.0     0.404567     0.100552     0.137118  Biso 1.000000     O
    O   1.0     0.404570     0.600547     0.137118  Biso 1.000000     O
    O   1.0     0.904570     0.100552     0.137118  Biso 1.000000     O
    O   1.0     0.904573     0.600547     0.137118  Biso 1.000000     O
    O   1.0     0.495764     0.338801     0.119381  Biso 1.000000     O
    O   1.0     0.495766     0.838796     0.119381  Biso 1.000000     O
    O   1.0     0.995767     0.338801     0.119380  Biso 1.000000     O
    O   1.0     0.995769     0.838796     0.119381  Biso 1.000000     O
    O   1.0     0.366978     0.497160     0.275776  Biso 1.000000     O
    O   1.0     0.366981     0.997155     0.275776  Biso 1.000000     O
    O   1.0     0.866981     0.497160     0.275776  Biso 1.000000     O
    O   1.0     0.866984     0.997155     0.275776  Biso 1.000000     O
    O   1.0     0.227454     0.425056     0.133077  Biso 1.000000     O
    O   1.0     0.227457     0.925051     0.133077  Biso 1.000000     O
    O   1.0     0.727457     0.425056     0.133077  Biso 1.000000     O
    O   1.0     0.727460     0.925051     0.133077  Biso 1.000000     O
    O   1.0     0.170109     0.031481     0.039904  Biso 1.000000     O
    O   1.0     0.170111     0.531476     0.039904  Biso 1.000000     O
    O   1.0     0.670112     0.031481     0.039904  Biso 1.000000     O
    O   1.0     0.670114     0.531476     0.039904  Biso 1.000000     O
    O   1.0     0.465524     0.480613     0.138509  Biso 1.000000     O
    O   1.0     0.465527     0.980608     0.138509  Biso 1.000000     O
    O   1.0     0.965527     0.480613     0.138509  Biso 1.000000     O
    O   1.0     0.965530     0.980608     0.138509  Biso 1.000000     O
    O   1.0     0.368104     0.362667     0.111641  Biso 1.000000     O
    O   1.0     0.368107     0.862662     0.111641  Biso 1.000000     O
    O   1.0     0.868107     0.362667     0.111641  Biso 1.000000     O
    O   1.0     0.868110     0.862662     0.111641  Biso 1.000000     O
    O   1.0     0.461282     0.343144     0.971756  Biso 1.000000     O
    O   1.0     0.461284     0.843138     0.971755  Biso 1.000000     O
    O   1.0     0.961285     0.343143     0.971755  Biso 1.000000     O
    O   1.0     0.961288     0.843139     0.971756  Biso 1.000000     O
    O   1.0     0.080498     0.394123     0.381904  Biso 1.000000     O
    O   1.0     0.080500     0.894118     0.381904  Biso 1.000000     O
    O   1.0     0.580501     0.394123     0.381904  Biso 1.000000     O
    O   1.0     0.580503     0.894118     0.381904  Biso 1.000000     O
    O   1.0     0.256809     0.073932     0.385407  Biso 1.000000     O
    O   1.0     0.256812     0.573927     0.385407  Biso 1.000000     O
    O   1.0     0.756813     0.073932     0.385407  Biso 1.000000     O
    O   1.0     0.756815     0.573927     0.385407  Biso 1.000000     O
    O   1.0     0.493765     0.159947     0.377208  Biso 1.000000     O
    O   1.0     0.493767     0.659941     0.377208  Biso 1.000000     O
    O   1.0     0.993768     0.159946     0.377208  Biso 1.000000     O
    O   1.0     0.993771     0.659942     0.377208  Biso 1.000000     O
    O   1.0     0.001528     0.372983     0.288391  Biso 1.000000     O
    O   1.0     0.001531     0.872978     0.288391  Biso 1.000000     O
    O   1.0     0.501531     0.372983     0.288391  Biso 1.000000     O
    O   1.0     0.501534     0.872978     0.288391  Biso 1.000000     O
    O   1.0     0.399455     0.095436     0.362817  Biso 1.000000     O
    O   1.0     0.399457     0.595431     0.362817  Biso 1.000000     O
    O   1.0     0.899458     0.095436     0.362817  Biso 1.000000     O
    O   1.0     0.899460     0.595431     0.362817  Biso 1.000000     O
    O   1.0     0.161190     0.004230     0.380688  Biso 1.000000     O
    O   1.0     0.161192     0.504225     0.380689  Biso 1.000000     O
    O   1.0     0.661192     0.004230     0.380689  Biso 1.000000     O
    O   1.0     0.661195     0.504225     0.380688  Biso 1.000000     O
    O   1.0     0.002876     0.132968     0.224190  Biso 1.000000     O
    O   1.0     0.002878     0.632963     0.224190  Biso 1.000000     O
    O   1.0     0.502879     0.132967     0.224190  Biso 1.000000     O
    O   1.0     0.502881     0.632963     0.224190  Biso 1.000000     O
    O   1.0     0.074930     0.272558     0.366938  Biso 1.000000     O
    O   1.0     0.074933     0.772553     0.366938  Biso 1.000000     O
    O   1.0     0.574933     0.272558     0.366938  Biso 1.000000     O
    O   1.0     0.574936     0.772553     0.366938  Biso 1.000000     O
    O   1.0     0.468528     0.329871     0.460154  Biso 1.000000     O
    O   1.0     0.468530     0.829865     0.460154  Biso 1.000000     O
    O   1.0     0.968531     0.329870     0.460154  Biso 1.000000     O
    O   1.0     0.968534     0.829865     0.460154  Biso 1.000000     O
    O   1.0     0.019384     0.034468     0.361534  Biso 1.000000     O
    O   1.0     0.019387     0.534463     0.361534  Biso 1.000000     O
    O   1.0     0.519387     0.034468     0.361534  Biso 1.000000     O
    O   1.0     0.519390     0.534463     0.361534  Biso 1.000000     O
    O   1.0     0.137326     0.131900     0.388330  Biso 1.000000     O
    O   1.0     0.137329     0.631895     0.388330  Biso 1.000000     O
    O   1.0     0.637330     0.131900     0.388330  Biso 1.000000     O
    O   1.0     0.637332     0.631895     0.388330  Biso 1.000000     O
    O   1.0     0.156742     0.038757     0.528326  Biso 1.000000     O
    O   1.0     0.156744     0.538753     0.528327  Biso 1.000000     O
    O   1.0     0.656745     0.038757     0.528327  Biso 1.000000     O
    O   1.0     0.656747     0.538752     0.528326  Biso 1.000000     O
    O   1.0     0.394150     0.080499     0.881869  Biso 1.000000     O
    O   1.0     0.394152     0.580494     0.881869  Biso 1.000000     O
    O   1.0     0.894153     0.080499     0.881869  Biso 1.000000     O
    O   1.0     0.894155     0.580494     0.881869  Biso 1.000000     O
    O   1.0     0.073976     0.256825     0.885283  Biso 1.000000     O
    O   1.0     0.073979     0.756820     0.885283  Biso 1.000000     O
    O   1.0     0.573980     0.256825     0.885283  Biso 1.000000     O
    O   1.0     0.573982     0.756820     0.885283  Biso 1.000000     O
    O   1.0     0.159953     0.493751     0.877290  Biso 1.000000     O
    O   1.0     0.159956     0.993746     0.877289  Biso 1.000000     O
    O   1.0     0.659956     0.493751     0.877289  Biso 1.000000     O
    O   1.0     0.659958     0.993746     0.877290  Biso 1.000000     O
    O   1.0     0.372972     0.001578     0.788347  Biso 1.000000     O
    O   1.0     0.372975     0.501573     0.788347  Biso 1.000000     O
    O   1.0     0.872975     0.001578     0.788347  Biso 1.000000     O
    O   1.0     0.872978     0.501573     0.788347  Biso 1.000000     O
    O   1.0     0.095441     0.399444     0.862900  Biso 1.000000     O
    O   1.0     0.095444     0.899439     0.862900  Biso 1.000000     O
    O   1.0     0.595445     0.399444     0.862900  Biso 1.000000     O
    O   1.0     0.595447     0.899439     0.862900  Biso 1.000000     O
    O   1.0     0.004245     0.161195     0.880637  Biso 1.000000     O
    O   1.0     0.004248     0.661190     0.880636  Biso 1.000000     O
    O   1.0     0.504248     0.161195     0.880636  Biso 1.000000     O
    O   1.0     0.504250     0.661190     0.880637  Biso 1.000000     O
    O   1.0     0.133031     0.002836     0.724242  Biso 1.000000     O
    O   1.0     0.133033     0.502831     0.724242  Biso 1.000000     O
    O   1.0     0.633034     0.002836     0.724242  Biso 1.000000     O
    O   1.0     0.633036     0.502831     0.724242  Biso 1.000000     O
    O   1.0     0.272555     0.074940     0.866941  Biso 1.000000     O
    O   1.0     0.272557     0.574935     0.866941  Biso 1.000000     O
    O   1.0     0.772558     0.074940     0.866941  Biso 1.000000     O
    O   1.0     0.772560     0.574935     0.866941  Biso 1.000000     O
    O   1.0     0.329900     0.468514     0.960114  Biso 1.000000     O
    O   1.0     0.329903     0.968510     0.960113  Biso 1.000000     O
    O   1.0     0.829903     0.468515     0.960114  Biso 1.000000     O
    O   1.0     0.829906     0.968509     0.960113  Biso 1.000000     O
    O   1.0     0.034485     0.019383     0.861509  Biso 1.000000     O
    O   1.0     0.034487     0.519378     0.861509  Biso 1.000000     O
    O   1.0     0.534488     0.019383     0.861509  Biso 1.000000     O
    O   1.0     0.534490     0.519378     0.861509  Biso 1.000000     O
    O   1.0     0.131905     0.137329     0.888377  Biso 1.000000     O
    O   1.0     0.131907     0.637323     0.888377  Biso 1.000000     O
    O   1.0     0.631908     0.137329     0.888377  Biso 1.000000     O
    O   1.0     0.631910     0.637324     0.888377  Biso 1.000000     O
    O   1.0     0.038727     0.156853     0.028262  Biso 1.000000     O
    O   1.0     0.038729     0.656847     0.028262  Biso 1.000000     O
    O   1.0     0.538730     0.156852     0.028262  Biso 1.000000     O
    O   1.0     0.538733     0.656848     0.028262  Biso 1.000000     O
    O   1.0     0.419511     0.105873     0.618114  Biso 1.000000     O
    O   1.0     0.419514     0.605867     0.618114  Biso 1.000000     O
    O   1.0     0.919514     0.105873     0.618114  Biso 1.000000     O
    O   1.0     0.919516     0.605868     0.618114  Biso 1.000000     O
    O   1.0     0.243199     0.426064     0.614611  Biso 1.000000     O
    O   1.0     0.243202     0.926059     0.614610  Biso 1.000000     O
    O   1.0     0.743202     0.426063     0.614610  Biso 1.000000     O
    O   1.0     0.743205     0.926059     0.614611  Biso 1.000000     O
    O   1.0     0.006244     0.340050     0.622809  Biso 1.000000     O
    O   1.0     0.006246     0.840044     0.622810  Biso 1.000000     O
    O   1.0     0.506247     0.340049     0.622810  Biso 1.000000     O
    O   1.0     0.506250     0.840045     0.622809  Biso 1.000000     O
    O   1.0     0.498481     0.127012     0.711627  Biso 1.000000     O
    O   1.0     0.498483     0.627008     0.711627  Biso 1.000000     O
    O   1.0     0.998484     0.127012     0.711627  Biso 1.000000     O
    O   1.0     0.998486     0.627007     0.711627  Biso 1.000000     O
    O   1.0     0.100554     0.404560     0.637201  Biso 1.000000     O
    O   1.0     0.100557     0.904555     0.637201  Biso 1.000000     O
    O   1.0     0.600557     0.404560     0.637201  Biso 1.000000     O
    O   1.0     0.600560     0.904555     0.637201  Biso 1.000000     O
    O   1.0     0.338819     0.495766     0.619329  Biso 1.000000     O
    O   1.0     0.338822     0.995761     0.619330  Biso 1.000000     O
    O   1.0     0.838822     0.495766     0.619330  Biso 1.000000     O
    O   1.0     0.838825     0.995761     0.619329  Biso 1.000000     O
    O   1.0     0.497133     0.367028     0.775828  Biso 1.000000     O
    O   1.0     0.497136     0.867023     0.775828  Biso 1.000000     O
    O   1.0     0.997136     0.367028     0.775828  Biso 1.000000     O
    O   1.0     0.997139     0.867023     0.775828  Biso 1.000000     O
    O   1.0     0.425078     0.227438     0.633080  Biso 1.000000     O
    O   1.0     0.425081     0.727433     0.633080  Biso 1.000000     O
    O   1.0     0.925082     0.227438     0.633080  Biso 1.000000     O
    O   1.0     0.925084     0.727433     0.633080  Biso 1.000000     O
    O   1.0     0.031481     0.170125     0.539864  Biso 1.000000     O
    O   1.0     0.031483     0.670120     0.539864  Biso 1.000000     O
    O   1.0     0.531484     0.170125     0.539863  Biso 1.000000     O
    O   1.0     0.531487     0.670120     0.539864  Biso 1.000000     O
    O   1.0     0.480625     0.465527     0.638484  Biso 1.000000     O
    O   1.0     0.480627     0.965523     0.638484  Biso 1.000000     O
    O   1.0     0.980628     0.465528     0.638484  Biso 1.000000     O
    O   1.0     0.980630     0.965522     0.638484  Biso 1.000000     O
    O   1.0     0.362682     0.368096     0.611688  Biso 1.000000     O
    O   1.0     0.362685     0.868091     0.611688  Biso 1.000000     O
    O   1.0     0.862685     0.368096     0.611688  Biso 1.000000     O
    O   1.0     0.862688     0.868091     0.611688  Biso 1.000000     O
    O   1.0     0.343267     0.461239     0.471691  Biso 1.000000     O
    O   1.0     0.343270     0.961234     0.471691  Biso 1.000000     O
    O   1.0     0.843270     0.461239     0.471691  Biso 1.000000     O
    O   1.0     0.843273     0.961233     0.471691  Biso 1.000000     O
   Al   1.0     0.468263     0.158775     0.125713  Biso 1.000000    Al
   Al   1.0     0.468265     0.658770     0.125713  Biso 1.000000    Al
   Al   1.0     0.968266     0.158775     0.125713  Biso 1.000000    Al
   Al   1.0     0.968268     0.658770     0.125713  Biso 1.000000    Al
   Al   1.0     0.316778     0.440406     0.081381  Biso 1.000000    Al
   Al   1.0     0.316780     0.940401     0.081381  Biso 1.000000    Al
   Al   1.0     0.816781     0.440406     0.081381  Biso 1.000000    Al
   Al   1.0     0.816783     0.940401     0.081381  Biso 1.000000    Al
   Al   1.0     0.016775     0.401946     0.167004  Biso 1.000000    Al
   Al   1.0     0.016777     0.901941     0.167004  Biso 1.000000    Al
   Al   1.0     0.516778     0.401946     0.167004  Biso 1.000000    Al
   Al   1.0     0.516781     0.901941     0.167004  Biso 1.000000    Al
   Al   1.0     0.341230     0.031732     0.374269  Biso 1.000000    Al
   Al   1.0     0.341233     0.531727     0.374269  Biso 1.000000    Al
   Al   1.0     0.841233     0.031732     0.374269  Biso 1.000000    Al
   Al   1.0     0.841236     0.531727     0.374269  Biso 1.000000    Al
   Al   1.0     0.059593     0.183231     0.418588  Biso 1.000000    Al
   Al   1.0     0.059596     0.683226     0.418587  Biso 1.000000    Al
   Al   1.0     0.559597     0.183231     0.418587  Biso 1.000000    Al
   Al   1.0     0.559599     0.683226     0.418588  Biso 1.000000    Al
   Al   1.0     0.098045     0.483201     0.333049  Biso 1.000000    Al
   Al   1.0     0.098048     0.983196     0.333049  Biso 1.000000    Al
   Al   1.0     0.598049     0.483201     0.333049  Biso 1.000000    Al
   Al   1.0     0.598051     0.983196     0.333049  Biso 1.000000    Al
   Al   1.0     0.031746     0.341221     0.874305  Biso 1.000000    Al
   Al   1.0     0.031749     0.841216     0.874305  Biso 1.000000    Al
   Al   1.0     0.531749     0.341221     0.874305  Biso 1.000000    Al
   Al   1.0     0.531752     0.841216     0.874305  Biso 1.000000    Al
   Al   1.0     0.183231     0.059590     0.918637  Biso 1.000000    Al
   Al   1.0     0.183234     0.559585     0.918637  Biso 1.000000    Al
   Al   1.0     0.683234     0.059590     0.918637  Biso 1.000000    Al
   Al   1.0     0.683237     0.559585     0.918637  Biso 1.000000    Al
   Al   1.0     0.483234     0.098050     0.833014  Biso 1.000000    Al
   Al   1.0     0.483236     0.598045     0.833014  Biso 1.000000    Al
   Al   1.0     0.983237     0.098050     0.833014  Biso 1.000000    Al
   Al   1.0     0.983239     0.598045     0.833014  Biso 1.000000    Al
   Al   1.0     0.158779     0.468264     0.625749  Biso 1.000000    Al
   Al   1.0     0.158781     0.968259     0.625749  Biso 1.000000    Al
   Al   1.0     0.658782     0.468264     0.625749  Biso 1.000000    Al
   Al   1.0     0.658784     0.968259     0.625749  Biso 1.000000    Al
   Al   1.0     0.440415     0.316765     0.581430  Biso 1.000000    Al
   Al   1.0     0.440418     0.816760     0.581430  Biso 1.000000    Al
   Al   1.0     0.940418     0.316765     0.581430  Biso 1.000000    Al
   Al   1.0     0.940421     0.816760     0.581430  Biso 1.000000    Al
   Al   1.0     0.401963     0.016794     0.666969  Biso 1.000000    Al
   Al   1.0     0.401966     0.516789     0.666969  Biso 1.000000    Al
   Al   1.0     0.901966     0.016794     0.666969  Biso 1.000000    Al
   Al   1.0     0.901969     0.516789     0.666969  Biso 1.000000    Al
    P   1.0     0.438156     0.322145     0.079005  Biso 1.000000     P
    P   1.0     0.438159     0.822140     0.079005  Biso 1.000000     P
    P   1.0     0.938159     0.322145     0.079005  Biso 1.000000     P
    P   1.0     0.938162     0.822140     0.079005  Biso 1.000000     P
    P   1.0     0.157568     0.468415     0.125715  Biso 1.000000     P
    P   1.0     0.157571     0.968410     0.125715  Biso 1.000000     P
    P   1.0     0.657572     0.468415     0.125715  Biso 1.000000     P
    P   1.0     0.657574     0.968410     0.125715  Biso 1.000000     P
    P   1.0     0.394308     0.020936     0.168953  Biso 1.000000     P
    P   1.0     0.394310     0.520931     0.168953  Biso 1.000000     P
    P   1.0     0.894311     0.020936     0.168953  Biso 1.000000     P
    P   1.0     0.894313     0.520931     0.168953  Biso 1.000000     P
    P   1.0     0.177818     0.061840     0.421056  Biso 1.000000     P
    P   1.0     0.177820     0.561835     0.421057  Biso 1.000000     P
    P   1.0     0.677821     0.061840     0.421057  Biso 1.000000     P
    P   1.0     0.677823     0.561835     0.421056  Biso 1.000000     P
    P   1.0     0.031569     0.342425     0.374338  Biso 1.000000     P
    P   1.0     0.031571     0.842420     0.374338  Biso 1.000000     P
    P   1.0     0.531572     0.342425     0.374338  Biso 1.000000     P
    P   1.0     0.531574     0.842420     0.374338  Biso 1.000000     P
    P   1.0     0.479082     0.105682     0.331018  Biso 1.000000     P
    P   1.0     0.479085     0.605677     0.331019  Biso 1.000000     P
    P   1.0     0.979085     0.105682     0.331019  Biso 1.000000     P
    P   1.0     0.979088     0.605677     0.331018  Biso 1.000000     P
    P   1.0     0.061852     0.177851     0.921013  Biso 1.000000     P
    P   1.0     0.061855     0.677845     0.921013  Biso 1.000000     P
    P   1.0     0.561856     0.177851     0.921013  Biso 1.000000     P
    P   1.0     0.561858     0.677845     0.921013  Biso 1.000000     P
    P   1.0     0.342440     0.031581     0.874303  Biso 1.000000     P
    P   1.0     0.342443     0.531576     0.874303  Biso 1.000000     P
    P   1.0     0.842443     0.031581     0.874303  Biso 1.000000     P
    P   1.0     0.842446     0.531576     0.874303  Biso 1.000000     P
    P   1.0     0.105701     0.479060     0.831065  Biso 1.000000     P
    P   1.0     0.105704     0.979055     0.831065  Biso 1.000000     P
    P   1.0     0.605704     0.479060     0.831065  Biso 1.000000     P
    P   1.0     0.605706     0.979055     0.831065  Biso 1.000000     P
    P   1.0     0.322191     0.438156     0.578961  Biso 1.000000     P
    P   1.0     0.322194     0.938151     0.578961  Biso 1.000000     P
    P   1.0     0.822194     0.438156     0.578961  Biso 1.000000     P
    P   1.0     0.822197     0.938151     0.578961  Biso 1.000000     P
    P   1.0     0.468440     0.157570     0.625679  Biso 1.000000     P
    P   1.0     0.468443     0.657565     0.625679  Biso 1.000000     P
    P   1.0     0.968443     0.157571     0.625679  Biso 1.000000     P
    P   1.0     0.968445     0.657565     0.625679  Biso 1.000000     P
    P   1.0     0.020927     0.394314     0.668999  Biso 1.000000     P
    P   1.0     0.020929     0.894309     0.668999  Biso 1.000000     P
    P   1.0     0.520930     0.394314     0.668999  Biso 1.000000     P
    P   1.0     0.520932     0.894309     0.668999  Biso 1.000000     P
