#======================================================================

# CRYSTAL DATA

#----------------------------------------------------------------------

data_VESTA_phase_1


_pd_phase_name                         MOF
_cell_length_a                         19.84800
_cell_length_b                         19.84000
_cell_length_c                         15.50600
_cell_angle_alpha                      74.22900
_cell_angle_beta                       74.30100
_cell_angle_gamma                      82.63600
_symmetry_space_group_name_H-M         "P 1"
_symmetry_Int_Tables_number            1

loop_
_symmetry_equiv_pos_as_xyz
   "x, y, z"

loop_
   _atom_site_label
   _atom_site_occupancy
   _atom_site_fract_x
   _atom_site_fract_y
   _atom_site_fract_z
   _atom_site_adp_type
   _atom_site_B_iso_or_equiv
   _atom_site_type_symbol
    O   1.0     0.105880     0.419121     0.121303  Biso 1.000000     O
    O   1.0     0.105884     0.919115     0.121303  Biso 1.000000     O
    O   1.0     0.605883     0.419121     0.121305  Biso 1.000000     O
    O   1.0     0.605886     0.919116     0.121305  Biso 1.000000     O
    O   1.0     0.228459     0.425606     0.131010  Biso 1.000000     O
    O   1.0     0.228463     0.925601     0.131009  Biso 1.000000     O
    O   1.0     0.728462     0.425606     0.131010  Biso 1.000000     O
    O   1.0     0.728466     0.925601     0.131010  Biso 1.000000     O
    O   1.0     0.129971     0.498938     0.211271  Biso 1.000000     O
    O   1.0     0.129974     0.998933     0.211271  Biso 1.000000     O
    O   1.0     0.629974     0.498939     0.211271  Biso 1.000000     O
    O   1.0     0.629978     0.998934     0.211271  Biso 1.000000     O
    O   1.0     0.427286     0.243697     0.113353  Biso 1.000000     O
    O   1.0     0.427290     0.743692     0.113353  Biso 1.000000     O
    O   1.0     0.927290     0.243697     0.113351  Biso 1.000000     O
    O   1.0     0.927293     0.743692     0.113351  Biso 1.000000     O
    O   1.0     0.002290     0.133837     0.224371  Biso 1.000000     O
    O   1.0     0.002294     0.633832     0.224371  Biso 1.000000     O
    O   1.0     0.502293     0.133837     0.224371  Biso 1.000000     O
    O   1.0     0.502297     0.633832     0.224371  Biso 1.000000     O
    O   1.0     0.495919     0.340048     0.118072  Biso 1.000000     O
    O   1.0     0.495923     0.840043     0.118072  Biso 1.000000     O
    O   1.0     0.995922     0.340047     0.118072  Biso 1.000000     O
    O   1.0     0.995926     0.840042     0.118072  Biso 1.000000     O
    O   1.0     0.461790     0.343596     0.971212  Biso 1.000000     O
    O   1.0     0.461794     0.843591     0.971212  Biso 1.000000     O
    O   1.0     0.961793     0.343597     0.971211  Biso 1.000000     O
    O   1.0     0.961797     0.843592     0.971211  Biso 1.000000     O
    O   1.0     0.494421     0.158164     0.377727  Biso 1.000000     O
    O   1.0     0.494424     0.658159     0.377727  Biso 1.000000     O
    O   1.0     0.994424     0.158165     0.377727  Biso 1.000000     O
    O   1.0     0.994427     0.658159     0.377727  Biso 1.000000     O
    O   1.0     0.169246     0.030948     0.040133  Biso 1.000000     O
    O   1.0     0.169249     0.530943     0.040133  Biso 1.000000     O
    O   1.0     0.669249     0.030948     0.040133  Biso 1.000000     O
    O   1.0     0.669252     0.530943     0.040133  Biso 1.000000     O
    O   1.0     0.368642     0.362647     0.109964  Biso 1.000000     O
    O   1.0     0.368645     0.862642     0.109964  Biso 1.000000     O
    O   1.0     0.868644     0.362647     0.109964  Biso 1.000000     O
    O   1.0     0.868648     0.862642     0.109964  Biso 1.000000     O
    O   1.0     0.019650     0.033801     0.358535  Biso 1.000000     O
    O   1.0     0.019654     0.533796     0.358535  Biso 1.000000     O
    O   1.0     0.519653     0.033801     0.358535  Biso 1.000000     O
    O   1.0     0.519657     0.533796     0.358535  Biso 1.000000     O
    O   1.0     0.399906     0.094591     0.362478  Biso 1.000000     O
    O   1.0     0.399910     0.594586     0.362478  Biso 1.000000     O
    O   1.0     0.899909     0.094591     0.362478  Biso 1.000000     O
    O   1.0     0.899913     0.594586     0.362478  Biso 1.000000     O
    O   1.0     0.081085     0.394102     0.378657  Biso 1.000000     O
    O   1.0     0.081089     0.894096     0.378657  Biso 1.000000     O
    O   1.0     0.581088     0.394102     0.378657  Biso 1.000000     O
    O   1.0     0.581092     0.894096     0.378657  Biso 1.000000     O
    O   1.0     0.074266     0.271499     0.369256  Biso 1.000000     O
    O   1.0     0.074270     0.771494     0.369256  Biso 1.000000     O
    O   1.0     0.574269     0.271499     0.369255  Biso 1.000000     O
    O   1.0     0.574272     0.771494     0.369255  Biso 1.000000     O
    O   1.0     0.001223     0.370208     0.288599  Biso 1.000000     O
    O   1.0     0.001227     0.870203     0.288599  Biso 1.000000     O
    O   1.0     0.501225     0.370208     0.288600  Biso 1.000000     O
    O   1.0     0.501229     0.870203     0.288600  Biso 1.000000     O
    O   1.0     0.256488     0.073448     0.384945  Biso 1.000000     O
    O   1.0     0.256491     0.573443     0.384945  Biso 1.000000     O
    O   1.0     0.756491     0.073448     0.384945  Biso 1.000000     O
    O   1.0     0.756494     0.573443     0.384945  Biso 1.000000     O
    O   1.0     0.366309     0.497422     0.275771  Biso 1.000000     O
    O   1.0     0.366312     0.997417     0.275771  Biso 1.000000     O
    O   1.0     0.866312     0.497422     0.275772  Biso 1.000000     O
    O   1.0     0.866315     0.997417     0.275772  Biso 1.000000     O
    O   1.0     0.160059     0.004054     0.382014  Biso 1.000000     O
    O   1.0     0.160062     0.504049     0.382015  Biso 1.000000     O
    O   1.0     0.660062     0.004054     0.382015  Biso 1.000000     O
    O   1.0     0.660065     0.504049     0.382015  Biso 1.000000     O
    O   1.0     0.157969     0.038188     0.528340  Biso 1.000000     O
    O   1.0     0.157973     0.538182     0.528340  Biso 1.000000     O
    O   1.0     0.657972     0.038188     0.528340  Biso 1.000000     O
    O   1.0     0.657976     0.538183     0.528340  Biso 1.000000     O
    O   1.0     0.341768     0.005511     0.122365  Biso 1.000000     O
    O   1.0     0.341772     0.505505     0.122365  Biso 1.000000     O
    O   1.0     0.841771     0.005510     0.122365  Biso 1.000000     O
    O   1.0     0.841775     0.505505     0.122365  Biso 1.000000     O
    O   1.0     0.469122     0.331031     0.459707  Biso 1.000000     O
    O   1.0     0.469126     0.831026     0.459707  Biso 1.000000     O
    O   1.0     0.969125     0.331031     0.459706  Biso 1.000000     O
    O   1.0     0.969129     0.831026     0.459706  Biso 1.000000     O
    O   1.0     0.137172     0.131327     0.390184  Biso 1.000000     O
    O   1.0     0.137175     0.631322     0.390184  Biso 1.000000     O
    O   1.0     0.637175     0.131327     0.390184  Biso 1.000000     O
    O   1.0     0.637178     0.631322     0.390184  Biso 1.000000     O
    O   1.0     0.466141     0.480519     0.141386  Biso 1.000000     O
    O   1.0     0.466145     0.980514     0.141386  Biso 1.000000     O
    O   1.0     0.966144     0.480519     0.141386  Biso 1.000000     O
    O   1.0     0.966148     0.980514     0.141386  Biso 1.000000     O
    O   1.0     0.405065     0.100174     0.137850  Biso 1.000000     O
    O   1.0     0.405069     0.600168     0.137850  Biso 1.000000     O
    O   1.0     0.905068     0.100173     0.137851  Biso 1.000000     O
    O   1.0     0.905072     0.600168     0.137851  Biso 1.000000     O
    O   1.0     0.394145     0.080887     0.878709  Biso 1.000000     O
    O   1.0     0.394148     0.580881     0.878709  Biso 1.000000     O
    O   1.0     0.894148     0.080887     0.878710  Biso 1.000000     O
    O   1.0     0.894151     0.580882     0.878710  Biso 1.000000     O
    O   1.0     0.271568     0.074403     0.868985  Biso 1.000000     O
    O   1.0     0.271572     0.574398     0.868985  Biso 1.000000     O
    O   1.0     0.771571     0.074403     0.868985  Biso 1.000000     O
    O   1.0     0.771575     0.574398     0.868985  Biso 1.000000     O
    O   1.0     0.370064     0.001075     0.788729  Biso 1.000000     O
    O   1.0     0.370068     0.501070     0.788729  Biso 1.000000     O
    O   1.0     0.870068     0.001076     0.788729  Biso 1.000000     O
    O   1.0     0.870071     0.501071     0.788729  Biso 1.000000     O
    O   1.0     0.072741     0.256314     0.886624  Biso 1.000000     O
    O   1.0     0.072744     0.756309     0.886624  Biso 1.000000     O
    O   1.0     0.572744     0.256314     0.886622  Biso 1.000000     O
    O   1.0     0.572748     0.756309     0.886622  Biso 1.000000     O
    O   1.0     0.497727     0.366185     0.775633  Biso 1.000000     O
    O   1.0     0.497731     0.866180     0.775633  Biso 1.000000     O
    O   1.0     0.997730     0.366185     0.775633  Biso 1.000000     O
    O   1.0     0.997734     0.866179     0.775633  Biso 1.000000     O
    O   1.0     0.004110     0.159950     0.881943  Biso 1.000000     O
    O   1.0     0.004114     0.659945     0.881943  Biso 1.000000     O
    O   1.0     0.504113     0.159949     0.881943  Biso 1.000000     O
    O   1.0     0.504117     0.659944     0.881943  Biso 1.000000     O
    O   1.0     0.038250     0.156425     0.028786  Biso 1.000000     O
    O   1.0     0.038254     0.656419     0.028786  Biso 1.000000     O
    O   1.0     0.538253     0.156426     0.028786  Biso 1.000000     O
    O   1.0     0.538257     0.656420     0.028786  Biso 1.000000     O
    O   1.0     0.005600     0.341844     0.622287  Biso 1.000000     O
    O   1.0     0.005603     0.841838     0.622287  Biso 1.000000     O
    O   1.0     0.505603     0.341844     0.622287  Biso 1.000000     O
    O   1.0     0.505606     0.841839     0.622287  Biso 1.000000     O
    O   1.0     0.330775     0.469060     0.959867  Biso 1.000000     O
    O   1.0     0.330778     0.969055     0.959867  Biso 1.000000     O
    O   1.0     0.830778     0.469060     0.959868  Biso 1.000000     O
    O   1.0     0.830781     0.969055     0.959868  Biso 1.000000     O
    O   1.0     0.131393     0.137366     0.890030  Biso 1.000000     O
    O   1.0     0.131397     0.637361     0.890030  Biso 1.000000     O
    O   1.0     0.631396     0.137366     0.890031  Biso 1.000000     O
    O   1.0     0.631400     0.637361     0.890031  Biso 1.000000     O
    O   1.0     0.480376     0.466214     0.641457  Biso 1.000000     O
    O   1.0     0.480379     0.966208     0.641457  Biso 1.000000     O
    O   1.0     0.980378     0.466213     0.641457  Biso 1.000000     O
    O   1.0     0.980382     0.966208     0.641457  Biso 1.000000     O
    O   1.0     0.100117     0.405420     0.637529  Biso 1.000000     O
    O   1.0     0.100120     0.905415     0.637529  Biso 1.000000     O
    O   1.0     0.600120     0.405420     0.637529  Biso 1.000000     O
    O   1.0     0.600124     0.905415     0.637529  Biso 1.000000     O
    O   1.0     0.418939     0.105915     0.621351  Biso 1.000000     O
    O   1.0     0.418942     0.605909     0.621351  Biso 1.000000     O
    O   1.0     0.918942     0.105915     0.621350  Biso 1.000000     O
    O   1.0     0.918945     0.605909     0.621350  Biso 1.000000     O
    O   1.0     0.425756     0.228517     0.630752  Biso 1.000000     O
    O   1.0     0.425759     0.728512     0.630752  Biso 1.000000     O
    O   1.0     0.925759     0.228517     0.630751  Biso 1.000000     O
    O   1.0     0.925762     0.728512     0.630751  Biso 1.000000     O
    O   1.0     0.498801     0.129810     0.711409  Biso 1.000000     O
    O   1.0     0.498805     0.629805     0.711409  Biso 1.000000     O
    O   1.0     0.998803     0.129810     0.711409  Biso 1.000000     O
    O   1.0     0.998807     0.629805     0.711409  Biso 1.000000     O
    O   1.0     0.243536     0.426575     0.615060  Biso 1.000000     O
    O   1.0     0.243540     0.926570     0.615060  Biso 1.000000     O
    O   1.0     0.743539     0.426575     0.615060  Biso 1.000000     O
    O   1.0     0.743543     0.926570     0.615060  Biso 1.000000     O
    O   1.0     0.133717     0.002596     0.724228  Biso 1.000000     O
    O   1.0     0.133721     0.502591     0.724228  Biso 1.000000     O
    O   1.0     0.633720     0.002596     0.724228  Biso 1.000000     O
    O   1.0     0.633724     0.502591     0.724228  Biso 1.000000     O
    O   1.0     0.339968     0.495968     0.617981  Biso 1.000000     O
    O   1.0     0.339972     0.995963     0.617981  Biso 1.000000     O
    O   1.0     0.839971     0.495968     0.617982  Biso 1.000000     O
    O   1.0     0.839974     0.995963     0.617982  Biso 1.000000     O
    O   1.0     0.342051     0.461829     0.471661  Biso 1.000000     O
    O   1.0     0.342054     0.961824     0.471661  Biso 1.000000     O
    O   1.0     0.842054     0.461829     0.471661  Biso 1.000000     O
    O   1.0     0.842057     0.961824     0.471661  Biso 1.000000     O
    O   1.0     0.158251     0.494496     0.877645  Biso 1.000000     O
    O   1.0     0.158255     0.994491     0.877645  Biso 1.000000     O
    O   1.0     0.658254     0.494496     0.877645  Biso 1.000000     O
    O   1.0     0.658258     0.994491     0.877645  Biso 1.000000     O
    O   1.0     0.030901     0.168984     0.540302  Biso 1.000000     O
    O   1.0     0.030904     0.668979     0.540302  Biso 1.000000     O
    O   1.0     0.530904     0.168985     0.540301  Biso 1.000000     O
    O   1.0     0.530907     0.668979     0.540302  Biso 1.000000     O
    O   1.0     0.362853     0.368694     0.609817  Biso 1.000000     O
    O   1.0     0.362856     0.868689     0.609818  Biso 1.000000     O
    O   1.0     0.862856     0.368694     0.609818  Biso 1.000000     O
    O   1.0     0.862859     0.868689     0.609818  Biso 1.000000     O
    O   1.0     0.033881     0.019481     0.858615  Biso 1.000000     O
    O   1.0     0.033884     0.519476     0.858615  Biso 1.000000     O
    O   1.0     0.533884     0.019481     0.858615  Biso 1.000000     O
    O   1.0     0.533887     0.519476     0.858615  Biso 1.000000     O
    O   1.0     0.094973     0.399833     0.862132  Biso 1.000000     O
    O   1.0     0.094976     0.899827     0.862132  Biso 1.000000     O
    O   1.0     0.594976     0.399833     0.862132  Biso 1.000000     O
    O   1.0     0.594979     0.899827     0.862132  Biso 1.000000     O
   Al   1.0     0.468355     0.158989     0.125808  Biso 1.000000    Al
   Al   1.0     0.468359     0.658984     0.125808  Biso 1.000000    Al
   Al   1.0     0.968358     0.158989     0.125808  Biso 1.000000    Al
   Al   1.0     0.968362     0.658984     0.125808  Biso 1.000000    Al
   Al   1.0     0.016889     0.401552     0.168086  Biso 1.000000    Al
   Al   1.0     0.016892     0.901547     0.168086  Biso 1.000000    Al
   Al   1.0     0.516891     0.401552     0.168086  Biso 1.000000    Al
   Al   1.0     0.516895     0.901547     0.168086  Biso 1.000000    Al
   Al   1.0     0.059339     0.182160     0.419789  Biso 1.000000    Al
   Al   1.0     0.059343     0.682155     0.419789  Biso 1.000000    Al
   Al   1.0     0.559342     0.182160     0.419788  Biso 1.000000    Al
   Al   1.0     0.559346     0.682155     0.419788  Biso 1.000000    Al
   Al   1.0     0.340836     0.031678     0.374028  Biso 1.000000    Al
   Al   1.0     0.340839     0.531672     0.374028  Biso 1.000000    Al
   Al   1.0     0.840839     0.031678     0.374028  Biso 1.000000    Al
   Al   1.0     0.840842     0.531672     0.374028  Biso 1.000000    Al
   Al   1.0     0.098637     0.483166     0.331797  Biso 1.000000    Al
   Al   1.0     0.098641     0.983160     0.331797  Biso 1.000000    Al
   Al   1.0     0.598640     0.483166     0.331797  Biso 1.000000    Al
   Al   1.0     0.598644     0.983160     0.331797  Biso 1.000000    Al
   Al   1.0     0.317730     0.440549     0.080382  Biso 1.000000    Al
   Al   1.0     0.317734     0.940544     0.080382  Biso 1.000000    Al
   Al   1.0     0.817733     0.440549     0.080383  Biso 1.000000    Al
   Al   1.0     0.817737     0.940544     0.080383  Biso 1.000000    Al
   Al   1.0     0.031676     0.341023     0.874185  Biso 1.000000    Al
   Al   1.0     0.031679     0.841018     0.874185  Biso 1.000000    Al
   Al   1.0     0.531679     0.341023     0.874184  Biso 1.000000    Al
   Al   1.0     0.531682     0.841017     0.874184  Biso 1.000000    Al
   Al   1.0     0.483137     0.098452     0.831922  Biso 1.000000    Al
   Al   1.0     0.483141     0.598447     0.831922  Biso 1.000000    Al
   Al   1.0     0.983140     0.098453     0.831922  Biso 1.000000    Al
   Al   1.0     0.983144     0.598448     0.831922  Biso 1.000000    Al
   Al   1.0     0.440682     0.317856     0.580219  Biso 1.000000    Al
   Al   1.0     0.440685     0.817850     0.580219  Biso 1.000000    Al
   Al   1.0     0.940685     0.317856     0.580219  Biso 1.000000    Al
   Al   1.0     0.940688     0.817850     0.580219  Biso 1.000000    Al
   Al   1.0     0.159186     0.468339     0.625973  Biso 1.000000    Al
   Al   1.0     0.159190     0.968333     0.625973  Biso 1.000000    Al
   Al   1.0     0.659189     0.468339     0.625973  Biso 1.000000    Al
   Al   1.0     0.659193     0.968334     0.625973  Biso 1.000000    Al
   Al   1.0     0.401390     0.016850     0.668202  Biso 1.000000    Al
   Al   1.0     0.401394     0.516845     0.668202  Biso 1.000000    Al
   Al   1.0     0.901393     0.016850     0.668202  Biso 1.000000    Al
   Al   1.0     0.901397     0.516845     0.668202  Biso 1.000000    Al
   Al   1.0     0.182297     0.059460     0.919617  Biso 1.000000    Al
   Al   1.0     0.182301     0.559455     0.919617  Biso 1.000000    Al
   Al   1.0     0.682300     0.059460     0.919617  Biso 1.000000    Al
   Al   1.0     0.682304     0.559454     0.919617  Biso 1.000000    Al
    P   1.0     0.158305     0.468460     0.125958  Biso 1.000000     P
    P   1.0     0.158308     0.968455     0.125958  Biso 1.000000     P
    P   1.0     0.658308     0.468460     0.125958  Biso 1.000000     P
    P   1.0     0.658312     0.968455     0.125958  Biso 1.000000     P
    P   1.0     0.438775     0.322668     0.077795  Biso 1.000000     P
    P   1.0     0.438778     0.822663     0.077795  Biso 1.000000     P
    P   1.0     0.938778     0.322668     0.077795  Biso 1.000000     P
    P   1.0     0.938781     0.822663     0.077795  Biso 1.000000     P
    P   1.0     0.479283     0.105078     0.330346  Biso 1.000000     P
    P   1.0     0.479287     0.605072     0.330346  Biso 1.000000     P
    P   1.0     0.979286     0.105078     0.330346  Biso 1.000000     P
    P   1.0     0.979290     0.605073     0.330346  Biso 1.000000     P
    P   1.0     0.031619     0.341788     0.374037  Biso 1.000000     P
    P   1.0     0.031622     0.841783     0.374037  Biso 1.000000     P
    P   1.0     0.531621     0.341788     0.374037  Biso 1.000000     P
    P   1.0     0.531625     0.841783     0.374037  Biso 1.000000     P
    P   1.0     0.177734     0.061379     0.421739  Biso 1.000000     P
    P   1.0     0.177737     0.561373     0.421739  Biso 1.000000     P
    P   1.0     0.677737     0.061379     0.421739  Biso 1.000000     P
    P   1.0     0.677740     0.561373     0.421739  Biso 1.000000     P
    P   1.0     0.394830     0.020681     0.169776  Biso 1.000000     P
    P   1.0     0.394833     0.520676     0.169776  Biso 1.000000     P
    P   1.0     0.894833     0.020681     0.169776  Biso 1.000000     P
    P   1.0     0.894836     0.520676     0.169776  Biso 1.000000     P
    P   1.0     0.341722     0.031549     0.874044  Biso 1.000000     P
    P   1.0     0.341726     0.531544     0.874044  Biso 1.000000     P
    P   1.0     0.841725     0.031550     0.874045  Biso 1.000000     P
    P   1.0     0.841729     0.531544     0.874045  Biso 1.000000     P
    P   1.0     0.061259     0.177342     0.922201  Biso 1.000000     P
    P   1.0     0.061262     0.677337     0.922201  Biso 1.000000     P
    P   1.0     0.561261     0.177342     0.922201  Biso 1.000000     P
    P   1.0     0.561265     0.677337     0.922201  Biso 1.000000     P
    P   1.0     0.020739     0.394937     0.669657  Biso 1.000000     P
    P   1.0     0.020742     0.894931     0.669657  Biso 1.000000     P
    P   1.0     0.520742     0.394937     0.669657  Biso 1.000000     P
    P   1.0     0.520745     0.894932     0.669657  Biso 1.000000     P
    P   1.0     0.468405     0.158228     0.625971  Biso 1.000000     P
    P   1.0     0.468408     0.658223     0.625971  Biso 1.000000     P
    P   1.0     0.968408     0.158228     0.625971  Biso 1.000000     P
    P   1.0     0.968411     0.658223     0.625971  Biso 1.000000     P
    P   1.0     0.322290     0.438642     0.578262  Biso 1.000000     P
    P   1.0     0.322294     0.938637     0.578262  Biso 1.000000     P
    P   1.0     0.822293     0.438642     0.578262  Biso 1.000000     P
    P   1.0     0.822297     0.938637     0.578262  Biso 1.000000     P
    P   1.0     0.105197     0.479327     0.830223  Biso 1.000000     P
    P   1.0     0.105200     0.979322     0.830223  Biso 1.000000     P
    P   1.0     0.605200     0.479327     0.830223  Biso 1.000000     P
    P   1.0     0.605203     0.979322     0.830223  Biso 1.000000     P
