#======================================================================

# CRYSTAL DATA

#----------------------------------------------------------------------

data_VESTA_phase_1


_pd_phase_name                         MOF
_cell_length_a                         12.53300
_cell_length_b                         15.21400
_cell_length_c                         16.64600
_cell_angle_alpha                      90.00200
_cell_angle_beta                       90.00000
_cell_angle_gamma                      90.00400
_symmetry_space_group_name_H-M         "P 1"
_symmetry_Int_Tables_number            1

loop_
_symmetry_equiv_pos_as_xyz
   "x, y, z"

loop_
   _atom_site_label
   _atom_site_occupancy
   _atom_site_fract_x
   _atom_site_fract_y
   _atom_site_fract_z
   _atom_site_adp_type
   _atom_site_B_iso_or_equiv
   _atom_site_type_symbol
    H   1.0     0.306693     0.263360     0.872564  Biso 1.000000     H
    H   1.0     0.806692     0.263399     0.872561  Biso 1.000000     H
    H   1.0     0.310493     0.109312     0.250378  Biso 1.000000     H
    H   1.0     0.810487     0.109318     0.250373  Biso 1.000000     H
    H   1.0     0.236755     0.285220     0.680609  Biso 1.000000     H
    H   1.0     0.736748     0.285223     0.680610  Biso 1.000000     H
    H   1.0     0.443263     0.736534     0.372559  Biso 1.000000     H
    H   1.0     0.943267     0.736610     0.372573  Biso 1.000000     H
    H   1.0     0.037470     0.028864     0.756566  Biso 1.000000     H
    H   1.0     0.537466     0.028866     0.756567  Biso 1.000000     H
    H   1.0     0.287475     0.471113     0.243420  Biso 1.000000     H
    H   1.0     0.787467     0.471117     0.243418  Biso 1.000000     H
    H   1.0     0.345948     0.154239     0.896270  Biso 1.000000     H
    H   1.0     0.845970     0.154290     0.896298  Biso 1.000000     H
    H   1.0     0.203012     0.173534     0.456464  Biso 1.000000     H
    H   1.0     0.703006     0.173536     0.456463  Biso 1.000000     H
    H   1.0     0.042266     0.468611     0.634642  Biso 1.000000     H
    H   1.0     0.542262     0.468616     0.634640  Biso 1.000000     H
    H   1.0     0.020745     0.382936     0.399359  Biso 1.000000     H
    H   1.0     0.520738     0.382930     0.399358  Biso 1.000000     H
    H   1.0     0.054277     0.449341     0.530173  Biso 1.000000     H
    H   1.0     0.554275     0.449344     0.530170  Biso 1.000000     H
    H   1.0     0.397420     0.598464     0.199939  Biso 1.000000     H
    H   1.0     0.897409     0.598472     0.199942  Biso 1.000000     H
    H   1.0     0.487713     0.326009     0.172200  Biso 1.000000     H
    H   1.0     0.987680     0.326025     0.172232  Biso 1.000000     H
    H   1.0     0.193272     0.763426     0.627376  Biso 1.000000     H
    H   1.0     0.693267     0.763412     0.627373  Biso 1.000000     H
    H   1.0     0.195709     0.550660     0.030158  Biso 1.000000     H
    H   1.0     0.695697     0.550657     0.030150  Biso 1.000000     H
    H   1.0     0.056706     0.236595     0.127384  Biso 1.000000     H
    H   1.0     0.556704     0.236547     0.127390  Biso 1.000000     H
    H   1.0     0.445743     0.949343     0.969814  Biso 1.000000     H
    H   1.0     0.945736     0.949341     0.969815  Biso 1.000000     H
    H   1.0     0.263221     0.785240     0.819359  Biso 1.000000     H
    H   1.0     0.763215     0.785239     0.819360  Biso 1.000000     H
    H   1.0     0.275829     0.926115     0.896706  Biso 1.000000     H
    H   1.0     0.775823     0.926113     0.896707  Biso 1.000000     H
    H   1.0     0.352576     0.401496     0.699961  Biso 1.000000     H
    H   1.0     0.852570     0.401495     0.699964  Biso 1.000000     H
    H   1.0     0.262257     0.673964     0.672185  Biso 1.000000     H
    H   1.0     0.762256     0.673959     0.672195  Biso 1.000000     H
    H   1.0     0.292222     0.031383     0.365338  Biso 1.000000     H
    H   1.0     0.792213     0.031389     0.365334  Biso 1.000000     H
    H   1.0     0.012318     0.826041     0.327744  Biso 1.000000     H
    H   1.0     0.512274     0.826014     0.327796  Biso 1.000000     H
    H   1.0     0.403950     0.845624     0.396356  Biso 1.000000     H
    H   1.0     0.903995     0.845725     0.396303  Biso 1.000000     H
    H   1.0     0.108061     0.685212     0.298577  Biso 1.000000     H
    H   1.0     0.608062     0.685203     0.298573  Biso 1.000000     H
    H   1.0     0.486753     0.214762     0.319360  Biso 1.000000     H
    H   1.0     0.986745     0.214767     0.319360  Biso 1.000000     H
    H   1.0     0.394086    -0.002366     0.639860  Biso 1.000000     H
    H   1.0     0.894082    -0.002366     0.639862  Biso 1.000000     H
    H   1.0     0.207715     0.531381     0.134620  Biso 1.000000     H
    H   1.0     0.707705     0.531369     0.134615  Biso 1.000000     H
    H   1.0     0.060493     0.390648     0.749593  Biso 1.000000     H
    H   1.0     0.560485     0.390653     0.749589  Biso 1.000000     H
    H   1.0     0.141948     0.314768     0.798575  Biso 1.000000     H
    H   1.0     0.641935     0.314772     0.798574  Biso 1.000000     H
    H   1.0     0.358025     0.814797     0.701393  Biso 1.000000     H
    H   1.0     0.858019     0.814795     0.701393  Biso 1.000000     H
    H   1.0     0.212512     0.971139     0.256570  Biso 1.000000     H
    H   1.0     0.712500     0.971133     0.256570  Biso 1.000000     H
    H   1.0     0.144118     0.502356     0.360101  Biso 1.000000     H
    H   1.0     0.644113     0.502347     0.360096  Biso 1.000000     H
    H   1.0     0.102575     0.098482     0.300036  Biso 1.000000     H
    H   1.0     0.602564     0.098476     0.300037  Biso 1.000000     H
    H   1.0     0.147412     0.901534     0.800046  Biso 1.000000     H
    H   1.0     0.647407     0.901536     0.800049  Biso 1.000000     H
    H   1.0     0.046984     0.826464     0.956455  Biso 1.000000     H
    H   1.0     0.546968     0.826464     0.956455  Biso 1.000000     H
    H   1.0     0.013233     0.714765     0.180620  Biso 1.000000     H
    H   1.0     0.513223     0.714758     0.180619  Biso 1.000000     H
    H   1.0     0.474151     0.073889     0.396699  Biso 1.000000     H
    H   1.0     0.974143     0.073888     0.396694  Biso 1.000000     H
    H   1.0     0.453014     0.326467     0.543518  Biso 1.000000     H
    H   1.0     0.953000     0.326463     0.543519  Biso 1.000000     H
    H   1.0     0.296968     0.673534     0.043523  Biso 1.000000     H
    H   1.0     0.796958     0.673529     0.043522  Biso 1.000000     H
    H   1.0     0.355878     0.000000     0.139871  Biso 1.000000     H
    H   1.0     0.855874     0.000000     0.139868  Biso 1.000000     H
    H   1.0     0.457757     0.968619     0.865349  Biso 1.000000     H
    H   1.0     0.957749     0.968620     0.865350  Biso 1.000000     H
    H   1.0     0.025800     0.573899     0.103269  Biso 1.000000     H
    H   1.0     0.525791     0.573903     0.103259  Biso 1.000000     H
    H   1.0     0.153935     0.654320     0.603635  Biso 1.000000     H
    H   1.0     0.653938     0.654301     0.603644  Biso 1.000000     H
    H   1.0     0.391953     0.185196     0.201394  Biso 1.000000     H
    H   1.0     0.891950     0.185201     0.201392  Biso 1.000000     H
    H   1.0     0.229225     0.617082     0.899335  Biso 1.000000     H
    H   1.0     0.729218     0.617084     0.899334  Biso 1.000000     H
    H   1.0     0.479238     0.882918     0.100629  Biso 1.000000     H
    H   1.0     0.979237     0.882924     0.100626  Biso 1.000000     H
    H   1.0     0.095999     0.345718     0.103678  Biso 1.000000     H
    H   1.0     0.596025     0.345655     0.103645  Biso 1.000000     H
    H   1.0     0.105864     0.497646     0.860090  Biso 1.000000     H
    H   1.0     0.605854     0.497651     0.860087  Biso 1.000000     H
    H   1.0     0.224180     0.426088     0.603279  Biso 1.000000     H
    H   1.0     0.724177     0.426088     0.603277  Biso 1.000000     H
    H   1.0     0.237650     0.173948     0.827709  Biso 1.000000     H
    H   1.0     0.737663     0.173960     0.827738  Biso 1.000000     H
    H   1.0     0.270721     0.117046     0.600605  Biso 1.000000     H
    H   1.0     0.770718     0.117046     0.600605  Biso 1.000000     H
    H   1.0     0.189496     0.609328     0.249577  Biso 1.000000     H
    H   1.0     0.689490     0.609316     0.249568  Biso 1.000000     H
    H   1.0     0.304241     0.050653     0.469806  Biso 1.000000     H
    H   1.0     0.804232     0.050653     0.469800  Biso 1.000000     H
    H   1.0     0.439477     0.890690     0.750382  Biso 1.000000     H
    H   1.0     0.939470     0.890688     0.750382  Biso 1.000000     H
    H   1.0     0.462510     0.528863     0.743427  Biso 1.000000     H
    H   1.0     0.962506     0.528859     0.743433  Biso 1.000000     H
    C   1.0     0.365897     0.482678     0.269525  Biso 1.000000     C
    C   1.0     0.865884     0.482686     0.269529  Biso 1.000000     C
    C   1.0     0.054150     0.416947     0.589275  Biso 1.000000     C
    C   1.0     0.554145     0.416952     0.589272  Biso 1.000000     C
    C   1.0     0.004041     0.932565     0.143759  Biso 1.000000     C
    C   1.0     0.504025     0.932557     0.143764  Biso 1.000000     C
    C   1.0     0.439674     0.183517     0.472492  Biso 1.000000     C
    C   1.0     0.939659     0.183518     0.472491  Biso 1.000000     C
    C   1.0     0.357462     0.865175     0.748875  Biso 1.000000     C
    C   1.0     0.857455     0.865173     0.748875  Biso 1.000000     C
    C   1.0     0.105135     0.699967     0.721028  Biso 1.000000     C
    C   1.0     0.605130     0.699964     0.721030  Biso 1.000000     C
    C   1.0     0.433694     0.803260     0.348082  Biso 1.000000     C
    C   1.0     0.933716     0.803319     0.348052  Biso 1.000000     C
    C   1.0     0.445853     0.916952     0.910708  Biso 1.000000     C
    C   1.0     0.945847     0.916951     0.910709  Biso 1.000000     C
    C   1.0     0.335979     0.873299     0.898418  Biso 1.000000     C
    C   1.0     0.835973     0.873297     0.898420  Biso 1.000000     C
    C   1.0     0.314774     0.000230     0.666799  Biso 1.000000     C
    C   1.0     0.814766     0.000225     0.666794  Biso 1.000000     C
    C   1.0     0.245941     0.067422     0.643753  Biso 1.000000     C
    C   1.0     0.745941     0.067427     0.643760  Biso 1.000000     C
    C   1.0     0.320863     0.447365     0.744314  Biso 1.000000     C
    C   1.0     0.820856     0.447365     0.744316  Biso 1.000000     C
    C   1.0     0.195823     0.583052     0.089263  Biso 1.000000     C
    C   1.0     0.695823     0.583041     0.089258  Biso 1.000000     C
    C   1.0     0.217664     0.438459     0.775687  Biso 1.000000     C
    C   1.0     0.717656     0.438461     0.775688  Biso 1.000000     C
    C   1.0     0.070867     0.052615     0.255676  Biso 1.000000     C
    C   1.0     0.570855     0.052611     0.255675  Biso 1.000000     C
    C   1.0     0.179111     0.947382     0.755670  Biso 1.000000     C
    C   1.0     0.679102     0.947379     0.755665  Biso 1.000000     C
    C   1.0     0.467663     0.061511     0.224292  Biso 1.000000     C
    C   1.0     0.967660     0.061518     0.224288  Biso 1.000000     C
    C   1.0     0.032330     0.561519     0.275678  Biso 1.000000     C
    C   1.0     0.532329     0.561508     0.275669  Biso 1.000000     C
    C   1.0     0.282311     0.938487     0.724298  Biso 1.000000     C
    C   1.0     0.782310     0.938492     0.724305  Biso 1.000000     C
    C   1.0     0.435186     0.999743     0.166816  Biso 1.000000     C
    C   1.0     0.935181     0.999747     0.166816  Biso 1.000000     C
    C   1.0     0.164009     0.373282     0.601559  Biso 1.000000     C
    C   1.0     0.664001     0.373284     0.601557  Biso 1.000000     C
    C   1.0     0.185177     0.500248     0.833152  Biso 1.000000     C
    C   1.0     0.685168     0.500251     0.833151  Biso 1.000000     C
    C   1.0     0.144840     0.300043     0.221048  Biso 1.000000     C
    C   1.0     0.644838     0.300034     0.221038  Biso 1.000000     C
    C   1.0     0.429119     0.552617     0.244314  Biso 1.000000     C
    C   1.0     0.929111     0.552619     0.244310  Biso 1.000000     C
    C   1.0     0.066274     0.303299     0.151917  Biso 1.000000     C
    C   1.0     0.566286     0.303260     0.151898  Biso 1.000000     C
    C   1.0     0.064803     0.499757     0.333166  Biso 1.000000     C
    C   1.0     0.564794     0.499754     0.333168  Biso 1.000000     C
    C   1.0     0.134102     0.982707     0.230450  Biso 1.000000     C
    C   1.0     0.634088     0.982700     0.230452  Biso 1.000000     C
    C   1.0     0.107483     0.634835     0.251094  Biso 1.000000     C
    C   1.0     0.607479     0.634828     0.251090  Biso 1.000000     C
    C   1.0     0.060317     0.683528     0.027481  Biso 1.000000     C
    C   1.0     0.560294     0.683527     0.027479  Biso 1.000000     C
    C   1.0     0.304128     0.083047     0.410704  Biso 1.000000     C
    C   1.0     0.804123     0.083052     0.410700  Biso 1.000000     C
    C   1.0     0.115885     0.017298     0.730453  Biso 1.000000     C
    C   1.0     0.615885     0.017304     0.730459  Biso 1.000000     C
    C   1.0     0.142509     0.365146     0.751097  Biso 1.000000     C
    C   1.0     0.642499     0.365149     0.751095  Biso 1.000000     C
    C   1.0     0.183684     0.696716     0.651886  Biso 1.000000     C
    C   1.0     0.683683     0.696705     0.651891  Biso 1.000000     C
    C   1.0     0.189684     0.316472     0.527482  Biso 1.000000     C
    C   1.0     0.689679     0.316473     0.527481  Biso 1.000000     C
    C   1.0     0.495961     0.432553     0.356210  Biso 1.000000     C
    C   1.0     0.995948     0.432562     0.356216  Biso 1.000000     C
    C   1.0     0.085960     0.626713     0.101557  Biso 1.000000     C
    C   1.0     0.585965     0.626707     0.101547  Biso 1.000000     C
    C   1.0     0.310305     0.816485     0.972492  Biso 1.000000     C
    C   1.0     0.810295     0.816483     0.972492  Biso 1.000000     C
    C   1.0     0.316235     0.196655     0.848027  Biso 1.000000     C
    C   1.0     0.816246     0.196687     0.848045  Biso 1.000000     C
    C   1.0     0.414000     0.126704     0.398414  Biso 1.000000     C
    C   1.0     0.913997     0.126707     0.398409  Biso 1.000000     C
    C   1.0     0.394824     0.199952     0.778912  Biso 1.000000     C
    C   1.0     0.894822     0.199959     0.778921  Biso 1.000000     C
    C   1.0     0.254017     0.567439     0.856208  Biso 1.000000     C
    C   1.0     0.754011     0.567440     0.856209  Biso 1.000000     C
    C   1.0     0.384093     0.517295     0.769538  Biso 1.000000     C
    C   1.0     0.884089     0.517292     0.769543  Biso 1.000000     C
    C   1.0     0.355138     0.800027     0.278943  Biso 1.000000     C
    C   1.0     0.855141     0.800044     0.278928  Biso 1.000000     C
    C   1.0     0.392509     0.134822     0.248876  Biso 1.000000     C
    C   1.0     0.892505     0.134827     0.248873  Biso 1.000000     C
    N   1.0     0.397448     0.423144     0.324694  Biso 1.000000     N
    N   1.0     0.897440     0.423148     0.324693  Biso 1.000000     N
    N   1.0     0.352524     0.576854     0.824683  Biso 1.000000     N
    N   1.0     0.852518     0.576853     0.824686  Biso 1.000000     N
    N   1.0     0.335113     0.818987     0.824757  Biso 1.000000     N
    N   1.0     0.835106     0.818987     0.824758  Biso 1.000000     N
    N   1.0     0.147436     0.076833     0.675281  Biso 1.000000     N
    N   1.0     0.647432     0.076834     0.675281  Biso 1.000000     N
    N   1.0     0.164866     0.318962     0.675212  Biso 1.000000     N
    N   1.0     0.664861     0.318966     0.675211  Biso 1.000000     N
    N   1.0     0.085124     0.681027     0.175217  Biso 1.000000     N
    N   1.0     0.585110     0.681015     0.175212  Biso 1.000000     N
    N   1.0     0.414861     0.181017     0.324757  Biso 1.000000     N
    N   1.0     0.914850     0.181023     0.324755  Biso 1.000000     N
    N   1.0     0.102541     0.923153     0.175295  Biso 1.000000     N
    N   1.0     0.602527     0.923147     0.175296  Biso 1.000000     N
    O   1.0     0.068896     0.766485     0.034760  Biso 1.000000     O
    O   1.0     0.568878     0.766484     0.034760  Biso 1.000000     O
    O   1.0     0.031529     0.855906     0.903089  Biso 1.000000     O
    O   1.0     0.531519     0.855907     0.903088  Biso 1.000000     O
    O   1.0     0.112120     0.274377     0.290086  Biso 1.000000     O
    O   1.0     0.612111     0.274373     0.290075  Biso 1.000000     O
    O   1.0     0.137870     0.725632     0.790062  Biso 1.000000     O
    O   1.0     0.637861     0.725632     0.790064  Biso 1.000000     O
    O   1.0     0.213511     0.358744     0.464280  Biso 1.000000     O
    O   1.0     0.713503     0.358744     0.464278  Biso 1.000000     O
    O   1.0     0.362120     0.225621     0.709872  Biso 1.000000     O
    O   1.0     0.862110     0.225622     0.709882  Biso 1.000000     O
    O   1.0     0.218464     0.144095     0.403094  Biso 1.000000     O
    O   1.0     0.718456     0.144096     0.403093  Biso 1.000000     O
    O   1.0     0.491277     0.177788     0.791157  Biso 1.000000     O
    O   1.0     0.991274     0.177787     0.791159  Biso 1.000000     O
    O   1.0     0.318878     0.733529     0.965218  Biso 1.000000     O
    O   1.0     0.818871     0.733527     0.965219  Biso 1.000000     O
    O   1.0     0.286490     0.858759     0.035714  Biso 1.000000     O
    O   1.0     0.786477     0.858758     0.035713  Biso 1.000000     O
    O   1.0     0.281508     0.644089     0.096886  Biso 1.000000     O
    O   1.0     0.781500     0.644084     0.096885  Biso 1.000000     O
    O   1.0     0.181104     0.233514     0.534752  Biso 1.000000     O
    O   1.0     0.681099     0.233516     0.534752  Biso 1.000000     O
    O   1.0     0.463497     0.141244     0.535694  Biso 1.000000     O
    O   1.0     0.963483     0.141244     0.535692  Biso 1.000000     O
    O   1.0     0.036482     0.641260     0.964255  Biso 1.000000     O
    O   1.0     0.536465     0.641259     0.964252  Biso 1.000000     O
    O   1.0     0.008677     0.677787     0.708807  Biso 1.000000     O
    O   1.0     0.508671     0.677788     0.708807  Biso 1.000000     O
    O   1.0     0.241295     0.322218     0.208815  Biso 1.000000     O
    O   1.0     0.741292     0.322219     0.208814  Biso 1.000000     O
    O   1.0     0.258690     0.822219     0.291169  Biso 1.000000     O
    O   1.0     0.758689     0.822220     0.291167  Biso 1.000000     O
    O   1.0     0.468466     0.355909     0.596886  Biso 1.000000     O
    O   1.0     0.968454     0.355905     0.596887  Biso 1.000000     O
    O   1.0     0.387861     0.774368     0.209905  Biso 1.000000     O
    O   1.0     0.887852     0.774375     0.209889  Biso 1.000000     O
    O   1.0     0.431099     0.266474     0.465226  Biso 1.000000     O
    O   1.0     0.931087     0.266474     0.465226  Biso 1.000000     O
   Cd   1.0     0.289393     0.295744     0.350765  Biso 1.000000    Cd
   Cd   1.0     0.789382     0.295748     0.350763  Biso 1.000000    Cd
   Cd   1.0     0.210597     0.795756     0.149219  Biso 1.000000    Cd
   Cd   1.0     0.710582     0.795752     0.149218  Biso 1.000000    Cd
   Cd   1.0     0.460578     0.704257     0.850748  Biso 1.000000    Cd
   Cd   1.0     0.960575     0.704256     0.850749  Biso 1.000000    Cd
   Cd   1.0     0.039390     0.204238     0.649206  Biso 1.000000    Cd
   Cd   1.0     0.539388     0.204241     0.649206  Biso 1.000000    Cd
