#======================================================================

# CRYSTAL DATA

#----------------------------------------------------------------------

data_VESTA_phase_1


_pd_phase_name                         MOF
_cell_length_a                         19.29200
_cell_length_b                         12.20300
_cell_length_c                         16.85900
_cell_angle_alpha                      95.40000
_cell_angle_beta                       89.95800
_cell_angle_gamma                      113.28300
_symmetry_space_group_name_H-M         "P 1"
_symmetry_Int_Tables_number            1

loop_
_symmetry_equiv_pos_as_xyz
   "x, y, z"

loop_
   _atom_site_label
   _atom_site_occupancy
   _atom_site_fract_x
   _atom_site_fract_y
   _atom_site_fract_z
   _atom_site_adp_type
   _atom_site_B_iso_or_equiv
   _atom_site_type_symbol
    H   1.0     0.049146     0.198520     0.722751  Biso 1.000000     H
    H   1.0     0.549152     0.198521     0.722750  Biso 1.000000     H
    H   1.0     0.437319     0.910317     0.163844  Biso 1.000000     H
    H   1.0     0.937326     0.910318     0.163843  Biso 1.000000     H
    H   1.0     0.383363     0.705346     0.052400  Biso 1.000000     H
    H   1.0     0.883371     0.705346     0.052402  Biso 1.000000     H
    H   1.0     0.062702     0.089640     0.836164  Biso 1.000000     H
    H   1.0     0.562709     0.089640     0.836163  Biso 1.000000     H
    H   1.0     0.295799     0.185023     0.778275  Biso 1.000000     H
    H   1.0     0.795806     0.185024     0.778276  Biso 1.000000     H
    H   1.0     0.296691     0.184546     0.278417  Biso 1.000000     H
    H   1.0     0.796697     0.184546     0.278417  Biso 1.000000     H
    H   1.0     0.067244     0.647778     0.382246  Biso 1.000000     H
    H   1.0     0.567250     0.647777     0.382246  Biso 1.000000     H
    H   1.0     0.116660     0.294616     0.947603  Biso 1.000000     H
    H   1.0     0.616669     0.294616     0.947605  Biso 1.000000     H
    H   1.0     0.127094     0.704125     0.829469  Biso 1.000000     H
    H   1.0     0.627100     0.704125     0.829469  Biso 1.000000     H
    H   1.0     0.482227     0.089469     0.335954  Biso 1.000000     H
    H   1.0     0.982233     0.089469     0.335954  Biso 1.000000     H
    H   1.0     0.204223     0.814932     0.221733  Biso 1.000000     H
    H   1.0     0.704229     0.814932     0.221733  Biso 1.000000     H
    H   1.0     0.490752     0.422240     0.366625  Biso 1.000000     H
    H   1.0     0.990759     0.422241     0.366624  Biso 1.000000     H
    H   1.0     0.050201     0.198543     0.222515  Biso 1.000000     H
    H   1.0     0.550208     0.198543     0.222515  Biso 1.000000     H
    H   1.0     0.243307     0.351965     0.117858  Biso 1.000000     H
    H   1.0     0.743315     0.351966     0.117861  Biso 1.000000     H
    H   1.0     0.420311     0.409243     0.951903  Biso 1.000000     H
    H   1.0     0.920316     0.409242     0.951902  Biso 1.000000     H
    H   1.0     0.284613     0.409183     0.451682  Biso 1.000000     H
    H   1.0     0.784620     0.409183     0.451681  Biso 1.000000     H
    H   1.0     0.009272     0.577717     0.633382  Biso 1.000000     H
    H   1.0     0.509277     0.577717     0.633382  Biso 1.000000     H
    H   1.0     0.372930     0.295834     0.170537  Biso 1.000000     H
    H   1.0     0.872936     0.295834     0.170537  Biso 1.000000     H
    H   1.0     0.279599     0.577525     0.133666  Biso 1.000000     H
    H   1.0     0.779607     0.577525     0.133667  Biso 1.000000     H
    H   1.0     0.432777     0.352181     0.617759  Biso 1.000000     H
    H   1.0     0.932782     0.352181     0.617760  Biso 1.000000     H
    H   1.0     0.275073     0.296064     0.670378  Biso 1.000000     H
    H   1.0     0.775080     0.296065     0.670379  Biso 1.000000     H
    H   1.0     0.256717     0.647998     0.882148  Biso 1.000000     H
    H   1.0     0.756724     0.647999     0.882150  Biso 1.000000     H
    H   1.0     0.224949     0.703890     0.329629  Biso 1.000000     H
    H   1.0     0.724956     0.703891     0.329629  Biso 1.000000     H
    H   1.0     0.449820     0.801412     0.777490  Biso 1.000000     H
    H   1.0     0.949826     0.801413     0.777491  Biso 1.000000     H
    H   1.0     0.030455     0.294564     0.448075  Biso 1.000000     H
    H   1.0     0.530463     0.294564     0.448073  Biso 1.000000     H
    H   1.0     0.220424     0.422439     0.866339  Biso 1.000000     H
    H   1.0     0.720432     0.422440     0.866340  Biso 1.000000     H
    H   1.0     0.017795     0.910488     0.664052  Biso 1.000000     H
    H   1.0     0.517800     0.910488     0.664052  Biso 1.000000     H
    H   1.0     0.203332     0.815415     0.721589  Biso 1.000000     H
    H   1.0     0.703338     0.815415     0.721589  Biso 1.000000     H
    H   1.0     0.469571     0.705397     0.551932  Biso 1.000000     H
    H   1.0     0.969578     0.705397     0.551932  Biso 1.000000     H
    H   1.0     0.079712     0.590717     0.048103  Biso 1.000000     H
    H   1.0     0.579717     0.590716     0.048102  Biso 1.000000     H
    H   1.0     0.450876     0.801435     0.277255  Biso 1.000000     H
    H   1.0     0.950883     0.801436     0.277254  Biso 1.000000     H
    H   1.0     0.215409     0.590783     0.548326  Biso 1.000000     H
    H   1.0     0.715416     0.590784     0.548325  Biso 1.000000     H
    C   1.0     0.388250     0.444290     0.992472  Biso 1.000000     C
    C   1.0     0.888256     0.444290     0.992471  Biso 1.000000     C
    C   1.0     0.305296     0.232793     0.523081  Biso 1.000000     C
    C   1.0     0.805302     0.232793     0.523081  Biso 1.000000     C
    C   1.0     0.259346     0.812695     0.231698  Biso 1.000000     C
    C   1.0     0.759352     0.812695     0.231698  Biso 1.000000     C
    C   1.0     0.311278     0.232730     0.023149  Biso 1.000000     C
    C   1.0     0.811284     0.232730     0.023150  Biso 1.000000     C
    C   1.0     0.044033     0.866603     0.699962  Biso 1.000000     C
    C   1.0     0.544039     0.866603     0.699962  Biso 1.000000     C
    C   1.0     0.040807     0.463297     0.406346  Biso 1.000000     C
    C   1.0     0.540813     0.463297     0.406347  Biso 1.000000     C
    C   1.0     0.017520     0.068366     0.511255  Biso 1.000000     C
    C   1.0     0.517526     0.068366     0.511255  Biso 1.000000     C
    C   1.0     0.104847     0.751663     0.792158  Biso 1.000000     C
    C   1.0     0.604852     0.751663     0.792158  Biso 1.000000     C
    C   1.0     0.389152     0.866402     0.199825  Biso 1.000000     C
    C   1.0     0.889158     0.866403     0.199824  Biso 1.000000     C
    C   1.0     0.395176     0.248296     0.207848  Biso 1.000000     C
    C   1.0     0.895182     0.248296     0.207848  Biso 1.000000     C
    C   1.0     0.309174     0.536512     0.093896  Biso 1.000000     C
    C   1.0     0.809180     0.536512     0.093897  Biso 1.000000     C
    C   1.0     0.482500     0.931594     0.488753  Biso 1.000000     C
    C   1.0     0.982506     0.931594     0.488753  Biso 1.000000     C
    C   1.0     0.308927     0.945067     0.120869  Biso 1.000000     C
    C   1.0     0.808933     0.945065     0.120867  Biso 1.000000     C
    C   1.0     0.180284     0.126500     0.815110  Biso 1.000000     C
    C   1.0     0.680290     0.126498     0.815109  Biso 1.000000     C
    C   1.0     0.483386     0.931614     0.988650  Biso 1.000000     C
    C   1.0     0.983392     0.931614     0.988650  Biso 1.000000     C
    C   1.0     0.270933     0.751424     0.292227  Biso 1.000000     C
    C   1.0     0.770940     0.751424     0.292227  Biso 1.000000     C
    C   1.0     0.289494     0.413041     0.085816  Biso 1.000000     C
    C   1.0     0.789501     0.413041     0.085817  Biso 1.000000     C
    C   1.0     0.191095     0.054891     0.879140  Biso 1.000000     C
    C   1.0     0.691101     0.054890     0.879140  Biso 1.000000     C
    C   1.0     0.082876     0.586759     0.414321  Biso 1.000000     C
    C   1.0     0.582883     0.586759     0.414320  Biso 1.000000     C
    C   1.0     0.062493     0.391148     0.451225  Biso 1.000000     C
    C   1.0     0.562498     0.391149     0.451226  Biso 1.000000     C
    C   1.0     0.169594     0.634071     0.965325  Biso 1.000000     C
    C   1.0     0.669603     0.634072     0.965328  Biso 1.000000     C
    C   1.0     0.147071     0.813088     0.731642  Biso 1.000000     C
    C   1.0     0.647076     0.813088     0.731642  Biso 1.000000     C
    C   1.0     0.417146     0.413201     0.585685  Biso 1.000000     C
    C   1.0     0.917152     0.413201     0.585685  Biso 1.000000     C
    C   1.0     0.163624     0.945562     0.620917  Biso 1.000000     C
    C   1.0     0.663630     0.945565     0.620919  Biso 1.000000     C
    C   1.0     0.190850     0.463450     0.906109  Biso 1.000000     C
    C   1.0     0.690857     0.463451     0.906110  Biso 1.000000     C
    C   1.0     0.103140     0.194885     0.737510  Biso 1.000000     C
    C   1.0     0.603147     0.194885     0.737510  Biso 1.000000     C
    C   1.0     0.352690     0.365962     0.534564  Biso 1.000000     C
    C   1.0     0.852695     0.365962     0.534565  Biso 1.000000     C
    C   1.0     0.352952     0.186871     0.268364  Biso 1.000000     C
    C   1.0     0.852958     0.186871     0.268364  Biso 1.000000     C
    C   1.0     0.459216     0.536663     0.593660  Biso 1.000000     C
    C   1.0     0.959223     0.536662     0.593660  Biso 1.000000     C
    C   1.0     0.334132     0.444299     0.492273  Biso 1.000000     C
    C   1.0     0.834139     0.444299     0.492272  Biso 1.000000     C
    C   1.0     0.330429     0.365891     0.034682  Biso 1.000000     C
    C   1.0     0.830438     0.365892     0.034685  Biso 1.000000     C
    C   1.0     0.147332     0.634000     0.465443  Biso 1.000000     C
    C   1.0     0.647340     0.634000     0.465439  Biso 1.000000     C
    C   1.0     0.165890     0.555666     0.507735  Biso 1.000000     C
    C   1.0     0.665897     0.555666     0.507734  Biso 1.000000     C
    C   1.0     0.437532     0.608813     0.548783  Biso 1.000000     C
    C   1.0     0.937539     0.608813     0.548782  Biso 1.000000     C
    C   1.0     0.110870     0.133554     0.800182  Biso 1.000000     C
    C   1.0     0.610876     0.133554     0.800182  Biso 1.000000     C
    C   1.0     0.146124     0.069439     0.254431  Biso 1.000000     C
    C   1.0     0.646129     0.069438     0.254431  Biso 1.000000     C
    C   1.0     0.388747     0.069163     0.754378  Biso 1.000000     C
    C   1.0     0.888753     0.069163     0.754378  Biso 1.000000     C
    C   1.0     0.367041     0.608739     0.049104  Biso 1.000000     C
    C   1.0     0.867047     0.608739     0.049104  Biso 1.000000     C
    C   1.0     0.188744     0.767232     0.976857  Biso 1.000000     C
    C   1.0     0.688751     0.767233     0.976858  Biso 1.000000     C
    C   1.0     0.111275     0.930807     0.245630  Biso 1.000000     C
    C   1.0     0.611281     0.930806     0.245630  Biso 1.000000     C
    C   1.0     0.111773     0.555671     0.007534  Biso 1.000000     C
    C   1.0     0.611778     0.555671     0.007534  Biso 1.000000     C
    C   1.0     0.353909     0.930531     0.745577  Biso 1.000000     C
    C   1.0     0.853915     0.930531     0.745577  Biso 1.000000     C
    C   1.0     0.494375     0.194807     0.237371  Biso 1.000000     C
    C   1.0     0.994381     0.194808     0.237371  Biso 1.000000     C
    C   1.0     0.117020     0.873841     0.684952  Biso 1.000000     C
    C   1.0     0.617028     0.873849     0.684956  Biso 1.000000     C
    C   1.0     0.194723     0.767170     0.476924  Biso 1.000000     C
    C   1.0     0.694730     0.767170     0.476923  Biso 1.000000     C
    C   1.0     0.210530     0.586922     0.914190  Biso 1.000000     C
    C   1.0     0.710537     0.586922     0.914192  Biso 1.000000     C
    C   1.0     0.455988     0.133355     0.300044  Biso 1.000000     C
    C   1.0     0.955994     0.133355     0.300044  Biso 1.000000     C
    C   1.0     0.336398     0.054397     0.379089  Biso 1.000000     C
    C   1.0     0.836404     0.054399     0.379090  Biso 1.000000     C
    C   1.0     0.005647     0.805150     0.762635  Biso 1.000000     C
    C   1.0     0.505653     0.805150     0.762635  Biso 1.000000     C
    C   1.0     0.229088     0.248531     0.707780  Biso 1.000000     C
    C   1.0     0.729095     0.248532     0.707780  Biso 1.000000     C
    C   1.0     0.132981     0.391223     0.950900  Biso 1.000000     C
    C   1.0     0.632987     0.391222     0.950900  Biso 1.000000     C
    C   1.0     0.396882     0.805071     0.262496  Biso 1.000000     C
    C   1.0     0.896889     0.805071     0.262496  Biso 1.000000     C
    C   1.0     0.319739     0.873461     0.184900  Biso 1.000000     C
    C   1.0     0.819744     0.873456     0.184897  Biso 1.000000     C
    C   1.0     0.016635     0.068341     0.011366  Biso 1.000000     C
    C   1.0     0.516641     0.068341     0.011365  Biso 1.000000     C
    C   1.0     0.383002     0.126118     0.315054  Biso 1.000000     C
    C   1.0     0.883009     0.126122     0.315056  Biso 1.000000     C
    C   1.0     0.240676     0.187260     0.768309  Biso 1.000000     C
    C   1.0     0.740683     0.187261     0.768309  Biso 1.000000     C
    N   1.0     0.405838     0.563577     0.998347  Biso 1.000000     N
    N   1.0     0.905844     0.563576     0.998348  Biso 1.000000     N
    N   1.0     0.161265     0.251133     0.690892  Biso 1.000000     N
    N   1.0     0.661272     0.251133     0.690892  Biso 1.000000     N
    N   1.0     0.464339     0.251051     0.190863  Biso 1.000000     N
    N   1.0     0.964345     0.251050     0.190863  Biso 1.000000     N
    N   1.0     0.338757     0.748822     0.309114  Biso 1.000000     N
    N   1.0     0.838764     0.748823     0.309114  Biso 1.000000     N
    N   1.0     0.376196     0.563582     0.498058  Biso 1.000000     N
    N   1.0     0.876204     0.563582     0.498057  Biso 1.000000     N
    N   1.0     0.035684     0.748908     0.809143  Biso 1.000000     N
    N   1.0     0.535690     0.748908     0.809143  Biso 1.000000     N
    N   1.0     0.094186     0.436384     0.001658  Biso 1.000000     N
    N   1.0     0.594192     0.436384     0.001658  Biso 1.000000     N
    N   1.0     0.123827     0.436382     0.501950  Biso 1.000000     N
    N   1.0     0.623834     0.436382     0.501950  Biso 1.000000     N
    O   1.0     0.018240     0.874104     0.017390  Biso 1.000000     O
    O   1.0     0.518246     0.874104     0.017391  Biso 1.000000     O
    O   1.0     0.139102     0.800606     0.007161  Biso 1.000000     O
    O   1.0     0.639108     0.800606     0.007160  Biso 1.000000     O
    O   1.0     0.152801     0.121386     0.324692  Biso 1.000000     O
    O   1.0     0.652805     0.121385     0.324692  Biso 1.000000     O
    O   1.0     0.481170     0.113302     0.556299  Biso 1.000000     O
    O   1.0     0.981176     0.113302     0.556299  Biso 1.000000     O
    O   1.0     0.130332     0.983405     0.572378  Biso 1.000000     O
    O   1.0     0.630337     0.983401     0.572377  Biso 1.000000     O
    O   1.0     0.334594     0.880532     0.809145  Biso 1.000000     O
    O   1.0     0.834599     0.880532     0.809144  Biso 1.000000     O
    O   1.0     0.336497     0.166284     0.544796  Biso 1.000000     O
    O   1.0     0.836503     0.166284     0.544796  Biso 1.000000     O
    O   1.0     0.232591     0.961209     0.621406  Biso 1.000000     O
    O   1.0     0.732597     0.961206     0.621405  Biso 1.000000     O
    O   1.0     0.424705     0.886823     0.943461  Biso 1.000000     O
    O   1.0     0.924712     0.886823     0.943460  Biso 1.000000     O
    O   1.0     0.261026     0.800624     0.507207  Biso 1.000000     O
    O   1.0     0.761032     0.800624     0.507208  Biso 1.000000     O
    O   1.0     0.361177     0.983047     0.072308  Biso 1.000000     O
    O   1.0     0.861184     0.983050     0.072308  Biso 1.000000     O
    O   1.0     0.081193     0.125801     0.482513  Biso 1.000000     O
    O   1.0     0.581199     0.125801     0.482513  Biso 1.000000     O
    O   1.0     0.360919     0.199354     0.992846  Biso 1.000000     O
    O   1.0     0.860925     0.199354     0.992845  Biso 1.000000     O
    O   1.0     0.347232     0.878585     0.675317  Biso 1.000000     O
    O   1.0     0.847238     0.878585     0.675317  Biso 1.000000     O
    O   1.0     0.105503     0.880726     0.309160  Biso 1.000000     O
    O   1.0     0.605510     0.880725     0.309160  Biso 1.000000     O
    O   1.0     0.138845     0.016913     0.927702  Biso 1.000000     O
    O   1.0     0.638851     0.016915     0.927702  Biso 1.000000     O
    O   1.0     0.369690     0.016556     0.427629  Biso 1.000000     O
    O   1.0     0.869695     0.016554     0.427628  Biso 1.000000     O
    O   1.0     0.247705     0.960467     0.121407  Biso 1.000000     O
    O   1.0     0.747712     0.960471     0.121408  Biso 1.000000     O
    O   1.0     0.267430     0.038749     0.378599  Biso 1.000000     O
    O   1.0     0.767436     0.038748     0.378599  Biso 1.000000     O
    O   1.0     0.091753     0.878932     0.175389  Biso 1.000000     O
    O   1.0     0.591761     0.878931     0.175389  Biso 1.000000     O
    O   1.0     0.165448     0.119438     0.190865  Biso 1.000000     O
    O   1.0     0.665451     0.119437     0.190865  Biso 1.000000     O
    O   1.0     0.018851     0.886657     0.443711  Biso 1.000000     O
    O   1.0     0.518857     0.886657     0.443711  Biso 1.000000     O
    O   1.0     0.163521     0.833676     0.455207  Biso 1.000000     O
    O   1.0     0.663527     0.833676     0.455208  Biso 1.000000     O
    O   1.0     0.408265     0.121039     0.824620  Biso 1.000000     O
    O   1.0     0.908272     0.121039     0.824620  Biso 1.000000     O
    O   1.0     0.075310     0.113129     0.056563  Biso 1.000000     O
    O   1.0     0.575317     0.113130     0.056562  Biso 1.000000     O
    O   1.0     0.481785     0.125853     0.982617  Biso 1.000000     O
    O   1.0     0.981792     0.125854     0.982618  Biso 1.000000     O
    O   1.0     0.394513     0.119242     0.690849  Biso 1.000000     O
    O   1.0     0.894519     0.119242     0.690849  Biso 1.000000     O
    O   1.0     0.253207     0.833807     0.955135  Biso 1.000000     O
    O   1.0     0.753213     0.833808     0.955134  Biso 1.000000     O
    O   1.0     0.252313     0.039478     0.878598  Biso 1.000000     O
    O   1.0     0.752320     0.039480     0.878598  Biso 1.000000     O
    O   1.0     0.418825     0.874161     0.517493  Biso 1.000000     O
    O   1.0     0.918831     0.874160     0.517493  Biso 1.000000     O
    O   1.0     0.246814     0.166157     0.044871  Biso 1.000000     O
    O   1.0     0.746820     0.166158     0.044870  Biso 1.000000     O
    O   1.0     0.238993     0.199343     0.492799  Biso 1.000000     O
    O   1.0     0.738999     0.199343     0.492799  Biso 1.000000     O
    Y   1.0     0.151723     0.009168     0.432756  Biso 1.000000     Y
    Y   1.0     0.651728     0.009167     0.432756  Biso 1.000000     Y
    Y   1.0     0.352953     0.009096     0.932738  Biso 1.000000     Y
    Y   1.0     0.852959     0.009096     0.932738  Biso 1.000000     Y
    Y   1.0     0.348299     0.990796     0.567252  Biso 1.000000     Y
    Y   1.0     0.848305     0.990795     0.567251  Biso 1.000000     Y
    Y   1.0     0.147070     0.990865     0.067271  Biso 1.000000     Y
    Y   1.0     0.647076     0.990865     0.067271  Biso 1.000000     Y
   Ag   1.0     0.358172     0.684911     0.419986  Biso 1.000000    Ag
   Ag   1.0     0.858180     0.684910     0.419985  Biso 1.000000    Ag
   Ag   1.0     0.015608     0.315024     0.079889  Biso 1.000000    Ag
   Ag   1.0     0.515614     0.315023     0.079889  Biso 1.000000    Ag
   Ag   1.0     0.141851     0.315052     0.580022  Biso 1.000000    Ag
   Ag   1.0     0.641858     0.315052     0.580021  Biso 1.000000    Ag
   Ag   1.0     0.484417     0.684938     0.920118  Biso 1.000000    Ag
   Ag   1.0     0.984423     0.684937     0.920118  Biso 1.000000    Ag
