#======================================================================

# CRYSTAL DATA

#----------------------------------------------------------------------

data_VESTA_phase_1


_pd_phase_name                         MOF
_cell_length_a                         12.63600
_cell_length_b                         12.63800
_cell_length_c                         23.81000
_cell_angle_alpha                      81.89500
_cell_angle_beta                       81.87800
_cell_angle_gamma                      65.76500
_symmetry_space_group_name_H-M         "P 1"
_symmetry_Int_Tables_number            1

loop_
_symmetry_equiv_pos_as_xyz
   "x, y, z"

loop_
   _atom_site_label
   _atom_site_occupancy
   _atom_site_fract_x
   _atom_site_fract_y
   _atom_site_fract_z
   _atom_site_adp_type
   _atom_site_B_iso_or_equiv
   _atom_site_type_symbol
    H   1.0     0.511614     0.451054     0.710562  Biso 1.000000     H
    H   1.0     0.512513     0.339519     0.672883  Biso 1.000000     H
    H   1.0     0.392043     0.647467     0.685107  Biso 1.000000     H
    H   1.0     0.237321     0.793969     0.627291  Biso 1.000000     H
    H   1.0     0.120958     0.730447     0.573723  Biso 1.000000     H
    H   1.0     0.310778     0.375265     0.637249  Biso 1.000000     H
    H   1.0     0.167541     0.414983     0.575385  Biso 1.000000     H
    H   1.0     0.140584     0.540037     0.525095  Biso 1.000000     H
    H   1.0     0.191661     0.496300     0.860377  Biso 1.000000     H
    H   1.0     0.088121     0.640588     0.932765  Biso 1.000000     H
    H   1.0     0.186935     0.352703     0.063072  Biso 1.000000     H
    H   1.0     0.281195     0.219811     0.984801  Biso 1.000000     H
    H   1.0     0.032200     0.553295     0.084917  Biso 1.000000     H
    H   1.0     0.009076     0.673191     0.033033  Biso 1.000000     H
    H   1.0     0.125290     0.667797     0.112212  Biso 1.000000     H
    H   1.0     0.236078     0.536340     0.090757  Biso 1.000000     H
    H   1.0     0.154805     0.771465     0.017321  Biso 1.000000     H
    H   1.0     0.263117     0.640143    -0.006142  Biso 1.000000     H
    H   1.0     0.214064     0.894324     0.064091  Biso 1.000000     H
    H   1.0     0.371064     0.919288     0.107706  Biso 1.000000     H
    H   1.0     0.586163     0.570230     0.101921  Biso 1.000000     H
    H   1.0     0.442008     0.530645     0.057227  Biso 1.000000     H
    H   1.0     0.169157     0.368329     0.758338  Biso 1.000000     H
    H   1.0     0.983844     0.382605     0.727189  Biso 1.000000     H
    H   1.0     0.006565     0.087229     0.848925  Biso 1.000000     H
    H   1.0     0.190621     0.087254     0.875767  Biso 1.000000     H
    H   1.0     0.798168     0.265356     0.805079  Biso 1.000000     H
    H   1.0     0.833743     0.311177     0.734473  Biso 1.000000     H
    H   1.0     0.899638     0.055959     0.785715  Biso 1.000000     H
    H   1.0     0.546228     0.489100     0.790179  Biso 1.000000     H
    H   1.0     0.657948     0.487380     0.828001  Biso 1.000000     H
    H   1.0     0.350181     0.609004     0.815481  Biso 1.000000     H
    H   1.0     0.203708     0.763750     0.873368  Biso 1.000000     H
    H   1.0     0.267495     0.879448     0.927232  Biso 1.000000     H
    H   1.0     0.622801     0.688823     0.863981  Biso 1.000000     H
    H   1.0     0.583014     0.832332     0.925843  Biso 1.000000     H
    H   1.0     0.457748     0.859396     0.976017  Biso 1.000000     H
    H   1.0     0.503814     0.807697     0.640539  Biso 1.000000     H
    H   1.0     0.359479     0.911844     0.568254  Biso 1.000000     H
    H   1.0     0.647205     0.812449     0.437801  Biso 1.000000     H
    H   1.0     0.780150     0.717474     0.515950  Biso 1.000000     H
    H   1.0     0.446397     0.968132     0.416230  Biso 1.000000     H
    H   1.0     0.326589     0.990602     0.468154  Biso 1.000000     H
    H   1.0     0.332152     0.875130     0.388591  Biso 1.000000     H
    H   1.0     0.463714     0.764291     0.409885  Biso 1.000000     H
    H   1.0     0.228603     0.844725     0.483446  Biso 1.000000     H
    H   1.0     0.360036     0.736177     0.506643  Biso 1.000000     H
    H   1.0     0.105526     0.786039     0.436557  Biso 1.000000     H
    H   1.0     0.080556     0.629974     0.392143  Biso 1.000000     H
    H   1.0     0.429923     0.415136     0.397000  Biso 1.000000     H
    H   1.0     0.469592     0.558442     0.442347  Biso 1.000000     H
    H   1.0     0.632006     0.829350     0.742805  Biso 1.000000     H
    H   1.0     0.617250     0.015367     0.773317  Biso 1.000000     H
    H   1.0     0.911265     0.993035     0.650607  Biso 1.000000     H
    H   1.0     0.911749     0.808215     0.624428  Biso 1.000000     H
    H   1.0     0.736029     0.200444     0.694103  Biso 1.000000     H
    H   1.0     0.686992     0.167163     0.764516  Biso 1.000000     H
    H   1.0     0.944244     0.096751     0.715653  Biso 1.000000     H
    H   1.0     0.488369     0.548899     0.289411  Biso 1.000000     H
    H   1.0     0.487466     0.660442     0.327086  Biso 1.000000     H
    H   1.0     0.607943     0.352487     0.314874  Biso 1.000000     H
    H   1.0     0.762665     0.205998     0.372693  Biso 1.000000     H
    H   1.0     0.879024     0.269534     0.426257  Biso 1.000000     H
    H   1.0     0.689187     0.624709     0.362725  Biso 1.000000     H
    H   1.0     0.832376     0.585013     0.424614  Biso 1.000000     H
    H   1.0     0.859402     0.459918     0.474881  Biso 1.000000     H
    H   1.0     0.808308     0.503659     0.139590  Biso 1.000000     H
    H   1.0     0.911847     0.359376     0.067199  Biso 1.000000     H
    H   1.0     0.813032     0.647269     0.936896  Biso 1.000000     H
    H   1.0     0.718773     0.780156     0.015170  Biso 1.000000     H
    H   1.0     0.967761     0.446681     0.915047  Biso 1.000000     H
    H   1.0     0.990895     0.326781     0.966930  Biso 1.000000     H
    H   1.0     0.874672     0.332175     0.887755  Biso 1.000000     H
    H   1.0     0.763884     0.463629     0.909213  Biso 1.000000     H
    H   1.0     0.845172     0.228501     0.982646  Biso 1.000000     H
    H   1.0     0.736858     0.359819     0.000000  Biso 1.000000     H
    H   1.0     0.785913     0.105640     0.935878  Biso 1.000000     H
    H   1.0     0.628910     0.080673     0.892266  Biso 1.000000     H
    H   1.0     0.413805     0.429728     0.898056  Biso 1.000000     H
    H   1.0     0.557961     0.469316     0.942748  Biso 1.000000     H
    H   1.0     0.830847     0.631605     0.241624  Biso 1.000000     H
    H   1.0     0.016144     0.617356     0.272780  Biso 1.000000     H
    H   1.0     0.993386     0.912759     0.151057  Biso 1.000000     H
    H   1.0     0.809345     0.912712     0.124211  Biso 1.000000     H
    H   1.0     0.201806     0.734611     0.194903  Biso 1.000000     H
    H   1.0     0.166216     0.688808     0.265509  Biso 1.000000     H
    H   1.0     0.100346     0.944015     0.214256  Biso 1.000000     H
    H   1.0     0.453752     0.510842     0.209800  Biso 1.000000     H
    H   1.0     0.342034     0.512576     0.171974  Biso 1.000000     H
    H   1.0     0.649798     0.390952     0.184487  Biso 1.000000     H
    H   1.0     0.796269     0.236208     0.126598  Biso 1.000000     H
    H   1.0     0.732481     0.120509     0.072736  Biso 1.000000     H
    H   1.0     0.377177     0.311130     0.135992  Biso 1.000000     H
    H   1.0     0.416962     0.167622     0.074129  Biso 1.000000     H
    H   1.0     0.542225     0.140560     0.023953  Biso 1.000000     H
    H   1.0     0.496156     0.192264     0.359433  Biso 1.000000     H
    H   1.0     0.640500     0.088111     0.431712  Biso 1.000000     H
    H   1.0     0.352789     0.187502     0.562173  Biso 1.000000     H
    H   1.0     0.219835     0.282484     0.484030  Biso 1.000000     H
    H   1.0     0.553612     0.031810     0.583736  Biso 1.000000     H
    H   1.0     0.673408     0.009356     0.531807  Biso 1.000000     H
    H   1.0     0.667861     0.124810     0.611373  Biso 1.000000     H
    H   1.0     0.536287     0.235648     0.590092  Biso 1.000000     H
    H   1.0     0.771379     0.155251     0.516514  Biso 1.000000     H
    H   1.0     0.639933     0.263797     0.493330  Biso 1.000000     H
    H   1.0     0.894455     0.213923     0.563420  Biso 1.000000     H
    H   1.0     0.919422     0.369989     0.607835  Biso 1.000000     H
    H   1.0     0.570057     0.584830     0.602968  Biso 1.000000     H
    H   1.0     0.530393     0.441525     0.557619  Biso 1.000000     H
    H   1.0     0.367958     0.170627     0.257168  Biso 1.000000     H
    H   1.0     0.382720     0.984604     0.226660  Biso 1.000000     H
    H   1.0     0.088724     0.006923     0.349380  Biso 1.000000     H
    H   1.0     0.088231     0.191751     0.375552  Biso 1.000000     H
    H   1.0     0.263930     0.799525     0.305877  Biso 1.000000     H
    H   1.0     0.312982     0.832801     0.235465  Biso 1.000000     H
    H   1.0     0.055722     0.903240     0.284317  Biso 1.000000     H
    C   1.0     0.410605     0.357797     0.753672  Biso 1.000000     C
    C   1.0     0.456368     0.411000     0.698693  Biso 1.000000     C
    C   1.0     0.362023     0.501526     0.664729  Biso 1.000000     C
    C   1.0     0.340283     0.620007     0.661994  Biso 1.000000     C
    C   1.0     0.253763     0.701756     0.629281  Biso 1.000000     C
    C   1.0     0.188416     0.666700     0.599287  Biso 1.000000     C
    C   1.0     0.208088     0.548470     0.601897  Biso 1.000000     C
    C   1.0     0.294934     0.467523     0.634734  Biso 1.000000     C
    C   1.0     0.135209     0.510446     0.570653  Biso 1.000000     C
    C   1.0     0.007005     0.561279     0.594650  Biso 1.000000     C
    C   1.0     0.186129     0.468643     0.905828  Biso 1.000000     C
    C   1.0     0.130449     0.547998     0.946445  Biso 1.000000     C
    C   1.0     0.129692     0.508919     0.004500  Biso 1.000000     C
    C   1.0     0.185106     0.388498     0.018568  Biso 1.000000     C
    C   1.0     0.237902     0.314087     0.975694  Biso 1.000000     C
    C   1.0     0.076301     0.591540     0.050114  Biso 1.000000     C
    C   1.0     0.167593     0.618546     0.074977  Biso 1.000000     C
    C   1.0     0.223115     0.687875     0.031858  Biso 1.000000     C
    C   1.0     0.314411     0.709839     0.056666  Biso 1.000000     C
    C   1.0     0.295564     0.819731     0.071807  Biso 1.000000     C
    C   1.0     0.382077     0.834690     0.096002  Biso 1.000000     C
    C   1.0     0.503268     0.640422     0.092152  Biso 1.000000     C
    C   1.0     0.421832     0.618831     0.067355  Biso 1.000000     C
    C   1.0     0.130238     0.307313     0.777346  Biso 1.000000     C
    C   1.0     0.026363     0.314594     0.760028  Biso 1.000000     C
    C   1.0     0.978037     0.235297     0.785298  Biso 1.000000     C
    C   1.0     0.039111     0.151639     0.827493  Biso 1.000000     C
    C   1.0     0.141970     0.150277     0.842701  Biso 1.000000     C
    C   1.0     0.864981     0.240505     0.768558  Biso 1.000000     C
    C   1.0     0.640343     0.589354     0.747276  Biso 1.000000     C
    C   1.0     0.586662     0.543892     0.802175  Biso 1.000000     C
    C   1.0     0.496286     0.638344     0.836157  Biso 1.000000     C
    C   1.0     0.377708     0.660467     0.838752  Biso 1.000000     C
    C   1.0     0.296000     0.747003     0.871485  Biso 1.000000     C
    C   1.0     0.331195     0.811979     0.901643  Biso 1.000000     C
    C   1.0     0.449519     0.791954     0.899158  Biso 1.000000     C
    C   1.0     0.530456     0.705018     0.866342  Biso 1.000000     C
    C   1.0     0.487527     0.864709     0.930484  Biso 1.000000     C
    C   1.0     0.436740     0.992878     0.906491  Biso 1.000000     C
    C   1.0     0.531423     0.813214     0.595078  Biso 1.000000     C
    C   1.0     0.452041     0.869247     0.554513  Biso 1.000000     C
    C   1.0     0.491045     0.869972     0.496463  Biso 1.000000     C
    C   1.0     0.611456     0.814261     0.482320  Biso 1.000000     C
    C   1.0     0.685891     0.761063     0.525124  Biso 1.000000     C
    C   1.0     0.408311     0.923653     0.450919  Biso 1.000000     C
    C   1.0     0.381445     0.832580     0.425783  Biso 1.000000     C
    C   1.0     0.312203     0.776628     0.468717  Biso 1.000000     C
    C   1.0     0.290204     0.685771     0.443534  Biso 1.000000     C
    C   1.0     0.180185     0.704780     0.428481  Biso 1.000000     C
    C   1.0     0.165219     0.618775     0.403853  Biso 1.000000     C
    C   1.0     0.359685     0.497757     0.407141  Biso 1.000000     C
    C   1.0     0.381307     0.578709     0.432321  Biso 1.000000     C
    C   1.0     0.692675     0.868467     0.723468  Biso 1.000000     C
    C   1.0     0.685144     0.972717     0.740440  Biso 1.000000     C
    C   1.0     0.763952     0.021286     0.714704  Biso 1.000000     C
    C   1.0     0.847314     0.960186     0.672401  Biso 1.000000     C
    C   1.0     0.848960     0.856956     0.657560  Biso 1.000000     C
    C   1.0     0.758824     0.134560     0.731076  Biso 1.000000     C
    C   1.0     0.589382     0.642148     0.246300  Biso 1.000000     C
    C   1.0     0.543613     0.588954     0.301281  Biso 1.000000     C
    C   1.0     0.637959     0.498434     0.335245  Biso 1.000000     C
    C   1.0     0.659698     0.379954     0.337987  Biso 1.000000     C
    C   1.0     0.746225     0.298211     0.370699  Biso 1.000000     C
    C   1.0     0.811563     0.333277     0.400693  Biso 1.000000     C
    C   1.0     0.791886     0.451509     0.398079  Biso 1.000000     C
    C   1.0     0.705036     0.532450     0.365242  Biso 1.000000     C
    C   1.0     0.864747     0.489547     0.429328  Biso 1.000000     C
    C   1.0     0.992947     0.438776     0.405321  Biso 1.000000     C
    C   1.0     0.813841     0.531319     0.094139  Biso 1.000000     C
    C   1.0     0.869521     0.451966     0.053521  Biso 1.000000     C
    C   1.0     0.870276     0.491049     0.995466  Biso 1.000000     C
    C   1.0     0.814863     0.611471     0.981400  Biso 1.000000     C
    C   1.0     0.762067     0.685879     0.024275  Biso 1.000000     C
    C   1.0     0.923666     0.408432     0.949851  Biso 1.000000     C
    C   1.0     0.832372     0.381423     0.924991  Biso 1.000000     C
    C   1.0     0.776859     0.312090     0.968112  Biso 1.000000     C
    C   1.0     0.685562     0.290123     0.943305  Biso 1.000000     C
    C   1.0     0.704411     0.180231     0.928164  Biso 1.000000     C
    C   1.0     0.617896     0.165270     0.903972  Biso 1.000000     C
    C   1.0     0.496702     0.359537     0.907824  Biso 1.000000     C
    C   1.0     0.578139     0.381129     0.932619  Biso 1.000000     C
    C   1.0     0.869755     0.692632     0.222620  Biso 1.000000     C
    C   1.0     0.973622     0.685365     0.239941  Biso 1.000000     C
    C   1.0     0.021934     0.764677     0.214677  Biso 1.000000     C
    C   1.0     0.960854     0.848337     0.172485  Biso 1.000000     C
    C   1.0     0.858003     0.849685     0.157273  Biso 1.000000     C
    C   1.0     0.134986     0.759473     0.231420  Biso 1.000000     C
    C   1.0     0.359629     0.410590     0.252698  Biso 1.000000     C
    C   1.0     0.413316     0.456055     0.197800  Biso 1.000000     C
    C   1.0     0.503692     0.361609     0.163815  Biso 1.000000     C
    C   1.0     0.622270     0.339489     0.161217  Biso 1.000000     C
    C   1.0     0.703977     0.252955     0.128483  Biso 1.000000     C
    C   1.0     0.668781     0.187978     0.098326  Biso 1.000000     C
    C   1.0     0.550458     0.208002     0.100812  Biso 1.000000     C
    C   1.0     0.469522     0.294936     0.133629  Biso 1.000000     C
    C   1.0     0.512450     0.135245     0.069487  Biso 1.000000     C
    C   1.0     0.563237     0.007078     0.093482  Biso 1.000000     C
    C   1.0     0.468551     0.186743     0.404894  Biso 1.000000     C
    C   1.0     0.547938     0.130710     0.445456  Biso 1.000000     C
    C   1.0     0.508944     0.129983     0.503508  Biso 1.000000     C
    C   1.0     0.388533     0.185693     0.517654  Biso 1.000000     C
    C   1.0     0.314092     0.238891     0.474852  Biso 1.000000     C
    C   1.0     0.591687     0.076298     0.549048  Biso 1.000000     C
    C   1.0     0.618555     0.167368     0.574186  Biso 1.000000     C
    C   1.0     0.687780     0.223339     0.531251  Biso 1.000000     C
    C   1.0     0.709778     0.314192     0.556438  Biso 1.000000     C
    C   1.0     0.819796     0.295183     0.571494  Biso 1.000000     C
    C   1.0     0.834760     0.381191     0.596121  Biso 1.000000     C
    C   1.0     0.640297     0.502210     0.592828  Biso 1.000000     C
    C   1.0     0.618677     0.421256     0.567648  Biso 1.000000     C
    C   1.0     0.307293     0.131507     0.276508  Biso 1.000000     C
    C   1.0     0.314827     0.027254     0.259537  Biso 1.000000     C
    C   1.0     0.236025     0.978681     0.285276  Biso 1.000000     C
    C   1.0     0.152668     0.039777     0.327582  Biso 1.000000     C
    C   1.0     0.151018     0.143012     0.342421  Biso 1.000000     C
    C   1.0     0.241147     0.865410     0.268904  Biso 1.000000     C
    C   1.0     0.873891     0.124935     0.750313  Biso 1.000000     C
    C   1.0     0.126081     0.875045     0.249661  Biso 1.000000     C
    N   1.0     0.239372     0.353147     0.919991  Biso 1.000000     N
    N   1.0     0.485022     0.746591     0.106209  Biso 1.000000     N
    N   1.0     0.187916     0.226893     0.818152  Biso 1.000000     N
    N   1.0     0.646882     0.759561     0.580844  Biso 1.000000     N
    N   1.0     0.253406     0.516163     0.393150  Biso 1.000000     N
    N   1.0     0.772855     0.810714     0.682581  Biso 1.000000     N
    N   1.0     0.760597     0.646816     0.079978  Biso 1.000000     N
    N   1.0     0.514951     0.253369     0.893765  Biso 1.000000     N
    N   1.0     0.812069     0.773056     0.181818  Biso 1.000000     N
    N   1.0     0.353094     0.240402     0.419131  Biso 1.000000     N
    N   1.0     0.746573     0.483802     0.606824  Biso 1.000000     N
    N   1.0     0.227114     0.189261     0.317395  Biso 1.000000     N
    O   1.0     0.449018     0.246303     0.760270  Biso 1.000000     O
    O   1.0     0.340505     0.423992     0.789696  Biso 1.000000     O
    O   1.0     0.977136     0.506653     0.639168  Biso 1.000000     O
    O   1.0     0.937299     0.655331     0.570543  Biso 1.000000     O
    O   1.0     0.751893     0.550675     0.740833  Biso 1.000000     O
    O   1.0     0.574506     0.659405     0.711141  Biso 1.000000     O
    O   1.0     0.491258     0.022633     0.861896  Biso 1.000000     O
    O   1.0     0.342754     0.062610     0.930656  Biso 1.000000     O
    O   1.0     0.550976     0.753642     0.239703  Biso 1.000000     O
    O   1.0     0.659482     0.575949     0.210279  Biso 1.000000     O
    O   1.0     0.022802     0.493458     0.360823  Biso 1.000000     O
    O   1.0     0.062668     0.344698     0.429405  Biso 1.000000     O
    O   1.0     0.248077     0.449290     0.259143  Biso 1.000000     O
    O   1.0     0.425464     0.340524     0.288829  Biso 1.000000     O
    O   1.0     0.508723     0.977332     0.138082  Biso 1.000000     O
    O   1.0     0.657218     0.937337     0.069317  Biso 1.000000     O
   Cd   1.0     0.362915     0.221545     0.850871  Biso 1.000000    Cd
   Cd   1.0     0.778056     0.635578     0.650141  Biso 1.000000    Cd
   Cd   1.0     0.637065     0.778411     0.149101  Biso 1.000000    Cd
   Cd   1.0     0.221900     0.364411     0.349838  Biso 1.000000    Cd
