#======================================================================

# CRYSTAL DATA

#----------------------------------------------------------------------

data_VESTA_phase_1


_pd_phase_name                         MOF
_cell_length_a                         13.27600
_cell_length_b                         13.72800
_cell_length_c                         15.49600
_cell_angle_alpha                      110.62600
_cell_angle_beta                       99.98500
_cell_angle_gamma                      110.98400
_symmetry_space_group_name_H-M         "P 1"
_symmetry_Int_Tables_number            1

loop_
_symmetry_equiv_pos_as_xyz
   "x, y, z"

loop_
   _atom_site_label
   _atom_site_occupancy
   _atom_site_fract_x
   _atom_site_fract_y
   _atom_site_fract_z
   _atom_site_adp_type
   _atom_site_B_iso_or_equiv
   _atom_site_type_symbol
    H   1.0     0.075573     0.427036     0.553872  Biso 1.000000     H
    H   1.0     0.402116     0.328242     0.934555  Biso 1.000000     H
    H   1.0     0.414407     0.071328     0.576892  Biso 1.000000     H
    H   1.0     0.150066     0.224505     0.070992  Biso 1.000000     H
    H   1.0     0.968813     0.078465     0.242303  Biso 1.000000     H
    H   1.0     0.005871     0.417242     0.852847  Biso 1.000000     H
    H   1.0     0.051284     0.622023     0.968170  Biso 1.000000     H
    H   1.0     0.204453     0.790353     0.965931  Biso 1.000000     H
    H   1.0     0.306065     0.755888     0.845888  Biso 1.000000     H
    H   1.0     0.916914     0.270820     0.560504  Biso 1.000000     H
    H   1.0     0.832995     0.234627     0.439454  Biso 1.000000     H
    H   1.0     0.850361     0.437087     0.519854  Biso 1.000000     H
    H   1.0     0.945133     0.466522     0.633499  Biso 1.000000     H
    H   1.0     0.000000     0.350660     0.381320  Biso 1.000000     H
    H   1.0     0.900257     0.367553     0.369103  Biso 1.000000     H
    H   1.0     0.595878     0.362152     0.854264  Biso 1.000000     H
    H   1.0     0.520549     0.244587     0.879805  Biso 1.000000     H
    H   1.0     0.584074     0.388472     0.049637  Biso 1.000000     H
    H   1.0     0.651337     0.500926     0.015941  Biso 1.000000     H
    H   1.0     0.531995     0.519090     0.884153  Biso 1.000000     H
    H   1.0     0.383494     0.420239     0.827919  Biso 1.000000     H
    H   1.0     0.249869     0.911331     0.359734  Biso 1.000000     H
    H   1.0     0.212775     0.915845     0.465079  Biso 1.000000     H
    H   1.0     0.447612     0.003149     0.374142  Biso 1.000000     H
    H   1.0     0.464183     0.142227     0.456355  Biso 1.000000     H
    H   1.0     0.347781     0.863698     0.527272  Biso 1.000000     H
    H   1.0     0.378165     0.838642     0.415468  Biso 1.000000     H
    H   1.0     0.354511     0.325920     0.191678  Biso 1.000000     H
    H   1.0     0.293375     0.421401     0.229953  Biso 1.000000     H
    H   1.0     0.245164     0.121001     0.181674  Biso 1.000000     H
    H   1.0     0.198565     0.164749     0.282908  Biso 1.000000     H
    H   1.0     0.119814     0.296952     0.303812  Biso 1.000000     H
    H   1.0     0.101590     0.352743     0.216751  Biso 1.000000     H
    H   1.0     0.960255     0.158301     0.086797  Biso 1.000000     H
    H   1.0     0.914172     0.195596     0.190251  Biso 1.000000     H
    H   1.0     0.058917     0.966652     0.163470  Biso 1.000000     H
    H   1.0     0.044521     0.007868     0.066411  Biso 1.000000     H
    H   1.0     0.789504     0.985360     0.141395  Biso 1.000000     H
    H   1.0     0.826179     0.973005     0.033689  Biso 1.000000     H
    H   1.0     0.386262     0.247613     0.381693  Biso 1.000000     H
    H   1.0     0.924450     0.572927     0.446065  Biso 1.000000     H
    H   1.0     0.597911     0.671719     0.065378  Biso 1.000000     H
    H   1.0     0.585617     0.928637     0.423044  Biso 1.000000     H
    H   1.0     0.849962     0.775460     0.928946  Biso 1.000000     H
    H   1.0     0.031211     0.921497     0.757635  Biso 1.000000     H
    H   1.0     0.994149     0.582726     0.147100  Biso 1.000000     H
    H   1.0     0.948736     0.377947     0.031772  Biso 1.000000     H
    H   1.0     0.795567     0.209613     0.034008  Biso 1.000000     H
    H   1.0     0.693953     0.244073     0.154051  Biso 1.000000     H
    H   1.0     0.083110     0.729143     0.439433  Biso 1.000000     H
    H   1.0     0.167029     0.765336     0.560483  Biso 1.000000     H
    H   1.0     0.149663     0.562876     0.480085  Biso 1.000000     H
    H   1.0     0.054892     0.533442     0.366439  Biso 1.000000     H
    H   1.0    -0.029693     0.649303     0.618618  Biso 1.000000     H
    H   1.0     0.099768     0.632410     0.630835  Biso 1.000000     H
    H   1.0     0.404148     0.637810     0.145669  Biso 1.000000     H
    H   1.0     0.479476     0.755375     0.120127  Biso 1.000000     H
    H   1.0     0.415952     0.611490     0.950296  Biso 1.000000     H
    H   1.0     0.348689     0.499037     0.983994  Biso 1.000000     H
    H   1.0     0.468029     0.480870     0.115779  Biso 1.000000     H
    H   1.0     0.616530     0.579722     0.172015  Biso 1.000000     H
    H   1.0     0.750152     0.088635     0.640201  Biso 1.000000     H
    H   1.0     0.787248     0.084118     0.534857  Biso 1.000000     H
    H   1.0     0.552410     0.996816     0.625793  Biso 1.000000     H
    H   1.0     0.535840     0.857738     0.543582  Biso 1.000000     H
    H   1.0     0.652241     0.136266     0.472663  Biso 1.000000     H
    H   1.0     0.621858     0.161321     0.584467  Biso 1.000000     H
    H   1.0     0.645512     0.674048     0.808261  Biso 1.000000     H
    H   1.0     0.706646     0.578565     0.769986  Biso 1.000000     H
    H   1.0     0.754861     0.878965     0.818266  Biso 1.000000     H
    H   1.0     0.801459     0.835216     0.717031  Biso 1.000000     H
    H   1.0     0.880209     0.703011     0.696126  Biso 1.000000     H
    H   1.0     0.898433     0.647220     0.783188  Biso 1.000000     H
    H   1.0     0.039769     0.841662     0.913141  Biso 1.000000     H
    H   1.0     0.085851     0.804366     0.809688  Biso 1.000000     H
    H   1.0     0.941108     0.033312     0.836468  Biso 1.000000     H
    H   1.0     0.955504     0.992098     0.933527  Biso 1.000000     H
    H   1.0     0.210520     0.014600     0.858542  Biso 1.000000     H
    H   1.0     0.173846     0.026956     0.966248  Biso 1.000000     H
    H   1.0     0.613759     0.752351     0.618244  Biso 1.000000     H
    C   1.0     0.272957     0.545427     0.709489  Biso 1.000000     C
    C   1.0     0.104741     0.348791     0.723203  Biso 1.000000     C
    C   1.0     0.212823     0.568189     0.782494  Biso 1.000000     C
    C   1.0     0.128955     0.472540     0.785732  Biso 1.000000     C
    C   1.0     0.070502     0.492877     0.852095  Biso 1.000000     C
    C   1.0     0.096568     0.606649     0.916342  Biso 1.000000     C
    C   1.0     0.182105     0.701277     0.914572  Biso 1.000000     C
    C   1.0     0.239394     0.682229     0.847500  Biso 1.000000     C
    C   1.0     0.920170     0.268740     0.489572  Biso 1.000000     C
    C   1.0     0.940545     0.470967     0.563687  Biso 1.000000     C
    C   1.0     0.989560     0.403368     0.415849  Biso 1.000000     C
    C   1.0     0.511788     0.306571     0.853434  Biso 1.000000     C
    C   1.0     0.572171     0.451041     0.025652  Biso 1.000000     C
    C   1.0     0.455833     0.469146     0.897130  Biso 1.000000     C
    C   1.0     0.268660     0.968306     0.437188  Biso 1.000000     C
    C   1.0     0.472640     0.064174     0.451787  Biso 1.000000     C
    C   1.0     0.404834     0.902486     0.492470  Biso 1.000000     C
    C   1.0     0.301575     0.346768     0.235595  Biso 1.000000     C
    C   1.0     0.179548     0.143826     0.204592  Biso 1.000000     C
    C   1.0     0.098962     0.275706     0.225247  Biso 1.000000     C
    C   1.0     0.979264     0.175384     0.164064  Biso 1.000000     C
    C   1.0     0.062871     0.038103     0.145608  Biso 1.000000     C
    C   1.0     0.847482     0.967013     0.102819  Biso 1.000000     C
    C   1.0     0.727061     0.454524     0.290453  Biso 1.000000     C
    C   1.0     0.895266     0.651171     0.276730  Biso 1.000000     C
    C   1.0     0.787195     0.431773     0.217447  Biso 1.000000     C
    C   1.0     0.871068     0.527424     0.214214  Biso 1.000000     C
    C   1.0     0.929523     0.507087     0.147853  Biso 1.000000     C
    C   1.0     0.903455     0.393316     0.083602  Biso 1.000000     C
    C   1.0     0.817914     0.298688     0.085370  Biso 1.000000     C
    C   1.0     0.760626     0.317734     0.152442  Biso 1.000000     C
    C   1.0     0.079854     0.731223     0.510365  Biso 1.000000     C
    C   1.0     0.059480     0.528997     0.436251  Biso 1.000000     C
    C   1.0     0.010465     0.596595     0.584088  Biso 1.000000     C
    C   1.0     0.488237     0.693391     0.146499  Biso 1.000000     C
    C   1.0     0.427855     0.548921     0.974282  Biso 1.000000     C
    C   1.0     0.544192     0.530816     0.102804  Biso 1.000000     C
    C   1.0     0.731363     0.031658     0.562748  Biso 1.000000     C
    C   1.0     0.527382     0.935789     0.548147  Biso 1.000000     C
    C   1.0     0.595189     0.097477     0.507465  Biso 1.000000     C
    C   1.0     0.698447     0.653198     0.764344  Biso 1.000000     C
    C   1.0     0.820476     0.856139     0.795348  Biso 1.000000     C
    C   1.0     0.901061     0.724258     0.774692  Biso 1.000000     C
    C   1.0     0.020759     0.824579     0.835874  Biso 1.000000     C
    C   1.0     0.937154     0.961862     0.854331  Biso 1.000000     C
    C   1.0     0.152543     0.032949     0.897119  Biso 1.000000     C
    N   1.0     0.987336     0.393478     0.508939  Biso 1.000000     N
    N   1.0     0.478567     0.383772     0.926854  Biso 1.000000     N
    N   1.0     0.390481     0.006343     0.493853  Biso 1.000000     N
    N   1.0     0.184765     0.245719     0.188921  Biso 1.000000     N
    N   1.0     0.966888     0.064059     0.168096  Biso 1.000000     N
    N   1.0     0.012688     0.606485     0.490997  Biso 1.000000     N
    N   1.0     0.521459     0.616190     0.073079  Biso 1.000000     N
    N   1.0     0.609542     0.993621     0.506081  Biso 1.000000     N
    N   1.0     0.815259     0.754246     0.811018  Biso 1.000000     N
    N   1.0     0.033136     0.935904     0.831842  Biso 1.000000     N
    O   1.0     0.214240     0.504630     0.618008  Biso 1.000000     O
    O   1.0     0.374083     0.560724     0.738581  Biso 1.000000     O
    O   1.0     0.185138     0.331082     0.694567  Biso 1.000000     O
    O   1.0     0.008711     0.266338     0.703593  Biso 1.000000     O
    O   1.0     0.973116     0.097496     0.494386  Biso 1.000000     O
    O   1.0     0.111597     0.265499     0.465829  Biso 1.000000     O
    O   1.0     0.923115     0.094769     0.330828  Biso 1.000000     O
    O   1.0     0.420733     0.317408     0.690147  Biso 1.000000     O
    O   1.0     0.452008     0.138128     0.674974  Biso 1.000000     O
    O   1.0     0.292251     0.168098     0.738924  Biso 1.000000     O
    O   1.0     0.208787     0.134141     0.542469  Biso 1.000000     O
    O   1.0     0.313467     0.179979     0.434179  Biso 1.000000     O
    O   1.0     0.106489     0.007487     0.355521  Biso 1.000000     O
    O   1.0     0.308934     0.396129     0.426079  Biso 1.000000     O
    O   1.0     0.431657     0.302165     0.357639  Biso 1.000000     O
    O   1.0     0.486310     0.513407     0.391392  Biso 1.000000     O
    O   1.0     0.693093     0.740505     0.027438  Biso 1.000000     O
    O   1.0     0.885897     0.785833     0.998322  Biso 1.000000     O
    O   1.0     0.886361     0.821573     0.169050  Biso 1.000000     O
    O   1.0     0.785784     0.495346     0.381937  Biso 1.000000     O
    O   1.0     0.625938     0.439231     0.261358  Biso 1.000000     O
    O   1.0     0.814867     0.668874     0.305365  Biso 1.000000     O
    O   1.0     0.991304     0.733629     0.296367  Biso 1.000000     O
    O   1.0     0.026906     0.902469     0.505552  Biso 1.000000     O
    O   1.0     0.888427     0.734461     0.534105  Biso 1.000000     O
    O   1.0     0.076907     0.905191     0.669109  Biso 1.000000     O
    O   1.0     0.579293     0.682558     0.309788  Biso 1.000000     O
    O   1.0     0.548018     0.861838     0.324959  Biso 1.000000     O
    O   1.0     0.707773     0.831867     0.261009  Biso 1.000000     O
    O   1.0     0.791236     0.865824     0.457470  Biso 1.000000     O
    O   1.0     0.686554     0.819986     0.565758  Biso 1.000000     O
    O   1.0     0.893531     0.992478     0.644420  Biso 1.000000     O
    O   1.0     0.691092     0.603840     0.573861  Biso 1.000000     O
    O   1.0     0.568362     0.697797     0.642295  Biso 1.000000     O
    O   1.0     0.513714     0.486557     0.608545  Biso 1.000000     O
    O   1.0     0.306936     0.259454     0.972496  Biso 1.000000     O
    O   1.0     0.114135     0.214135     0.001617  Biso 1.000000     O
    O   1.0     0.113667     0.178389     0.830887  Biso 1.000000     O
    P   1.0     0.990218     0.175267     0.441168  Biso 1.000000     P
    P   1.0     0.407720     0.224527     0.726328  Biso 1.000000     P
    P   1.0     0.219807     0.079521     0.441295  Biso 1.000000     P
    P   1.0     0.386398     0.397656     0.364323  Biso 1.000000     P
    P   1.0     0.821619     0.815535     0.075452  Biso 1.000000     P
    P   1.0     0.009805     0.824695     0.558768  Biso 1.000000     P
    P   1.0     0.592305     0.775438     0.273606  Biso 1.000000     P
    P   1.0     0.780215     0.920444     0.558644  Biso 1.000000     P
    P   1.0     0.613625     0.602309     0.635614  Biso 1.000000     P
    P   1.0     0.178410     0.184428     0.924485  Biso 1.000000     P
   La   1.0     0.316488     0.359120     0.574380  Biso 1.000000    La
   La   1.0     0.092960     0.107762     0.651991  Biso 1.000000    La
   La   1.0     0.683537     0.640846     0.425558  Biso 1.000000    La
   La   1.0     0.907060     0.892201     0.347947  Biso 1.000000    La
