#======================================================================

# CRYSTAL DATA

#----------------------------------------------------------------------

data_VESTA_phase_1


_pd_phase_name                         MOF
_cell_length_a                         16.47200
_cell_length_b                         18.42900
_cell_length_c                         18.45600
_cell_angle_alpha                      90.00700
_cell_angle_beta                       89.88500
_cell_angle_gamma                      90.04500
_symmetry_space_group_name_H-M         "P 1"
_symmetry_Int_Tables_number            1

loop_
_symmetry_equiv_pos_as_xyz
   "x, y, z"

loop_
   _atom_site_label
   _atom_site_occupancy
   _atom_site_fract_x
   _atom_site_fract_y
   _atom_site_fract_z
   _atom_site_adp_type
   _atom_site_B_iso_or_equiv
   _atom_site_type_symbol
    H   1.0     0.946156     0.805500     0.006155  Biso 1.000000     H
    H   1.0     0.053768     0.838380     0.881860  Biso 1.000000     H
    H   1.0     0.878856     0.781894     0.446729  Biso 1.000000     H
    H   1.0     0.862324     0.694400     0.482900  Biso 1.000000     H
    H   1.0     0.927042     0.616048     0.956157  Biso 1.000000     H
    H   1.0     0.873287     0.696946     0.977326  Biso 1.000000     H
    H   1.0     0.756779     0.875106     0.582167  Biso 1.000000     H
    H   1.0     0.833613     0.890502     0.516809  Biso 1.000000     H
    H   1.0     0.873043     0.728152     0.852794  Biso 1.000000     H
    H   1.0     0.928679     0.647988     0.832734  Biso 1.000000     H
    H   1.0     0.763320     0.681403     0.578670  Biso 1.000000     H
    H   1.0     0.732991     0.757632     0.630755  Biso 1.000000     H
    H   1.0     0.946079     0.194439     0.994115  Biso 1.000000     H
    H   1.0     0.053986     0.161780     0.117864  Biso 1.000000     H
    H   1.0     0.878508     0.218181     0.553273  Biso 1.000000     H
    H   1.0     0.862698     0.305668     0.516942  Biso 1.000000     H
    H   1.0     0.927068     0.383870     0.044225  Biso 1.000000     H
    H   1.0     0.873240     0.302941     0.023220  Biso 1.000000     H
    H   1.0     0.756625     0.125112     0.417947  Biso 1.000000     H
    H   1.0     0.833394     0.109554     0.483023  Biso 1.000000     H
    H   1.0     0.873145     0.271522     0.147688  Biso 1.000000     H
    H   1.0     0.928655     0.351812     0.167623  Biso 1.000000     H
    H   1.0     0.763862     0.318741     0.421344  Biso 1.000000     H
    H   1.0     0.733690     0.242558     0.369161  Biso 1.000000     H
    H   1.0     0.946000     0.993469     0.805290  Biso 1.000000     H
    H   1.0     0.053616     0.117715     0.838179  Biso 1.000000     H
    H   1.0     0.878865     0.553282     0.782443  Biso 1.000000     H
    H   1.0     0.862587     0.516931     0.695136  Biso 1.000000     H
    H   1.0     0.926981     0.043918     0.616272  Biso 1.000000     H
    H   1.0     0.873179     0.022636     0.697117  Biso 1.000000     H
    H   1.0     0.756656     0.417890     0.875788  Biso 1.000000     H
    H   1.0     0.833349     0.483377     0.891015  Biso 1.000000     H
    H   1.0     0.872995     0.147276     0.728601  Biso 1.000000     H
    H   1.0     0.928594     0.167486     0.648450  Biso 1.000000     H
    H   1.0     0.763743     0.420867     0.682394  Biso 1.000000     H
    H   1.0     0.733221     0.369019     0.758703  Biso 1.000000     H
    H   1.0     0.946242     0.006404     0.194854  Biso 1.000000     H
    H   1.0     0.054135     0.882407     0.161760  Biso 1.000000     H
    H   1.0     0.878607     0.446664     0.217445  Biso 1.000000     H
    H   1.0     0.862286     0.482833     0.304867  Biso 1.000000     H
    H   1.0     0.927159     0.955922     0.383950  Biso 1.000000     H
    H   1.0     0.873348     0.977212     0.303321  Biso 1.000000     H
    H   1.0     0.756876     0.582280     0.124659  Biso 1.000000     H
    H   1.0     0.833704     0.517040     0.109093  Biso 1.000000     H
    H   1.0     0.873204     0.852635     0.271618  Biso 1.000000     H
    H   1.0     0.928611     0.832390     0.351644  Biso 1.000000     H
    H   1.0     0.763357     0.578702     0.318001  Biso 1.000000     H
    H   1.0     0.733305     0.630919     0.241932  Biso 1.000000     H
    H   1.0     0.553881     0.194504     0.005741  Biso 1.000000     H
    H   1.0     0.445894     0.161696     0.882006  Biso 1.000000     H
    H   1.0     0.621543     0.218043     0.446669  Biso 1.000000     H
    H   1.0     0.637506     0.305607     0.482838  Biso 1.000000     H
    H   1.0     0.572879     0.383960     0.955616  Biso 1.000000     H
    H   1.0     0.626731     0.303134     0.976662  Biso 1.000000     H
    H   1.0     0.743314     0.125281     0.582150  Biso 1.000000     H
    H   1.0     0.666524     0.109564     0.517100  Biso 1.000000     H
    H   1.0     0.626837     0.271599     0.852216  Biso 1.000000     H
    H   1.0     0.571378     0.351820     0.832228  Biso 1.000000     H
    H   1.0     0.736339     0.318914     0.578368  Biso 1.000000     H
    H   1.0     0.766408     0.242874     0.630732  Biso 1.000000     H
    H   1.0     0.553971     0.805574     0.993939  Biso 1.000000     H
    H   1.0     0.446385     0.838379     0.118243  Biso 1.000000     H
    H   1.0     0.621139     0.781784     0.553286  Biso 1.000000     H
    H   1.0     0.637484     0.694369     0.516892  Biso 1.000000     H
    H   1.0     0.573077     0.616165     0.043956  Biso 1.000000     H
    H   1.0     0.626831     0.697137     0.022801  Biso 1.000000     H
    H   1.0     0.743351     0.875308     0.418089  Biso 1.000000     H
    H   1.0     0.666539     0.890533     0.483484  Biso 1.000000     H
    H   1.0     0.627058     0.728352     0.147339  Biso 1.000000     H
    H   1.0     0.571401     0.648128     0.167387  Biso 1.000000     H
    H   1.0     0.736490     0.681601     0.421042  Biso 1.000000     H
    H   1.0     0.766953     0.757979     0.369198  Biso 1.000000     H
    H   1.0     0.553812     0.006544     0.805185  Biso 1.000000     H
    H   1.0     0.446047     0.882339     0.838400  Biso 1.000000     H
    H   1.0     0.621204     0.446716     0.782480  Biso 1.000000     H
    H   1.0     0.637880     0.482964     0.695142  Biso 1.000000     H
    H   1.0     0.572914     0.955934     0.616117  Biso 1.000000     H
    H   1.0     0.626712     0.977383     0.696735  Biso 1.000000     H
    H   1.0     0.742942     0.582200     0.875728  Biso 1.000000     H
    H   1.0     0.666185     0.516718     0.890979  Biso 1.000000     H
    H   1.0     0.626941     0.852821     0.728480  Biso 1.000000     H
    H   1.0     0.571524     0.832418     0.648475  Biso 1.000000     H
    H   1.0     0.736799     0.579024     0.682328  Biso 1.000000     H
    H   1.0     0.766964     0.630950     0.758595  Biso 1.000000     H
    H   1.0     0.554033     0.993575     0.194632  Biso 1.000000     H
    H   1.0     0.446236     0.117559     0.161710  Biso 1.000000     H
    H   1.0     0.621338     0.553283     0.217600  Biso 1.000000     H
    H   1.0     0.637281     0.516898     0.304923  Biso 1.000000     H
    H   1.0     0.573011     0.044236     0.383627  Biso 1.000000     H
    H   1.0     0.626849     0.022947     0.302815  Biso 1.000000     H
    H   1.0     0.743510     0.417874     0.124456  Biso 1.000000     H
    H   1.0     0.666751     0.483142     0.109045  Biso 1.000000     H
    H   1.0     0.626939     0.147524     0.271142  Biso 1.000000     H
    H   1.0     0.571417     0.167764     0.351307  Biso 1.000000     H
    H   1.0     0.736139     0.420996     0.317793  Biso 1.000000     H
    H   1.0     0.766529     0.368971     0.241577  Biso 1.000000     H
    H   1.0     0.053875     0.194513     0.993830  Biso 1.000000     H
    H   1.0     0.946262     0.161633     0.118125  Biso 1.000000     H
    H   1.0     0.121173     0.218120     0.553256  Biso 1.000000     H
    H   1.0     0.137705     0.305613     0.517085  Biso 1.000000     H
    H   1.0     0.072988     0.383966     0.043829  Biso 1.000000     H
    H   1.0     0.126743     0.303066     0.022659  Biso 1.000000     H
    H   1.0     0.243250     0.124907     0.417818  Biso 1.000000     H
    H   1.0     0.166418     0.109512     0.483177  Biso 1.000000     H
    H   1.0     0.126987     0.271860     0.147192  Biso 1.000000     H
    H   1.0     0.071351     0.352024     0.167252  Biso 1.000000     H
    H   1.0     0.236710     0.318611     0.421315  Biso 1.000000     H
    H   1.0     0.267038     0.242382     0.369231  Biso 1.000000     H
    H   1.0     0.053950     0.805574     0.005870  Biso 1.000000     H
    H   1.0     0.946043     0.838233     0.882121  Biso 1.000000     H
    H   1.0     0.121521     0.781832     0.446712  Biso 1.000000     H
    H   1.0     0.137331     0.694345     0.483043  Biso 1.000000     H
    H   1.0     0.072962     0.616144     0.955760  Biso 1.000000     H
    H   1.0     0.126789     0.697071     0.976765  Biso 1.000000     H
    H   1.0     0.243404     0.874901     0.582039  Biso 1.000000     H
    H   1.0     0.166635     0.890460     0.516962  Biso 1.000000     H
    H   1.0     0.126885     0.728491     0.852297  Biso 1.000000     H
    H   1.0     0.071375     0.648201     0.832363  Biso 1.000000     H
    H   1.0     0.236167     0.681271     0.578640  Biso 1.000000     H
    H   1.0     0.266340     0.757455     0.630824  Biso 1.000000     H
    H   1.0     0.054030     0.006543     0.194696  Biso 1.000000     H
    H   1.0     0.946415     0.882298     0.161808  Biso 1.000000     H
    H   1.0     0.121168     0.446730     0.217540  Biso 1.000000     H
    H   1.0     0.137445     0.483080     0.304846  Biso 1.000000     H
    H   1.0     0.073050     0.956095     0.383714  Biso 1.000000     H
    H   1.0     0.126851     0.977377     0.302869  Biso 1.000000     H
    H   1.0     0.243377     0.582123     0.124197  Biso 1.000000     H
    H   1.0     0.166685     0.516637     0.108969  Biso 1.000000     H
    H   1.0     0.127034     0.852736     0.271387  Biso 1.000000     H
    H   1.0     0.071436     0.832528     0.351535  Biso 1.000000     H
    H   1.0     0.236289     0.579144     0.317590  Biso 1.000000     H
    H   1.0     0.266811     0.630992     0.241283  Biso 1.000000     H
    H   1.0     0.053788     0.993609     0.805132  Biso 1.000000     H
    H   1.0     0.945894     0.117606     0.838227  Biso 1.000000     H
    H   1.0     0.121423     0.553347     0.782539  Biso 1.000000     H
    H   1.0     0.137745     0.517176     0.695117  Biso 1.000000     H
    H   1.0     0.072871     0.044091     0.616036  Biso 1.000000     H
    H   1.0     0.126682     0.022801     0.696665  Biso 1.000000     H
    H   1.0     0.243154     0.417732     0.875328  Biso 1.000000     H
    H   1.0     0.166325     0.482974     0.890893  Biso 1.000000     H
    H   1.0     0.126827     0.147378     0.728370  Biso 1.000000     H
    H   1.0     0.071420     0.167624     0.648341  Biso 1.000000     H
    H   1.0     0.236674     0.421307     0.681986  Biso 1.000000     H
    H   1.0     0.266726     0.369091     0.758057  Biso 1.000000     H
    H   1.0     0.446149     0.805509     0.994243  Biso 1.000000     H
    H   1.0     0.554134     0.838316     0.117978  Biso 1.000000     H
    H   1.0     0.378486     0.781970     0.553315  Biso 1.000000     H
    H   1.0     0.362523     0.694406     0.517146  Biso 1.000000     H
    H   1.0     0.427151     0.616052     0.044367  Biso 1.000000     H
    H   1.0     0.373299     0.696879     0.023322  Biso 1.000000     H
    H   1.0     0.256716     0.874733     0.417835  Biso 1.000000     H
    H   1.0     0.333505     0.890449     0.482885  Biso 1.000000     H
    H   1.0     0.373194     0.728413     0.147767  Biso 1.000000     H
    H   1.0     0.428652     0.648193     0.167754  Biso 1.000000     H
    H   1.0     0.263689     0.681101     0.421615  Biso 1.000000     H
    H   1.0     0.233621     0.757141     0.369253  Biso 1.000000     H
    H   1.0     0.446059     0.194439     0.006045  Biso 1.000000     H
    H   1.0     0.553645     0.161633     0.881740  Biso 1.000000     H
    H   1.0     0.378890     0.218229     0.446699  Biso 1.000000     H
    H   1.0     0.362546     0.305644     0.483093  Biso 1.000000     H
    H   1.0     0.426954     0.383848     0.956027  Biso 1.000000     H
    H   1.0     0.373199     0.302876     0.977182  Biso 1.000000     H
    H   1.0     0.256678     0.124706     0.581897  Biso 1.000000     H
    H   1.0     0.333491     0.109481     0.516501  Biso 1.000000     H
    H   1.0     0.372971     0.271660     0.852644  Biso 1.000000     H
    H   1.0     0.428630     0.351885     0.832595  Biso 1.000000     H
    H   1.0     0.263540     0.318413     0.578943  Biso 1.000000     H
    H   1.0     0.233077     0.242035     0.630788  Biso 1.000000     H
    H   1.0     0.446217     0.993468     0.194797  Biso 1.000000     H
    H   1.0     0.553983     0.117673     0.161584  Biso 1.000000     H
    H   1.0     0.378829     0.553297     0.217506  Biso 1.000000     H
    H   1.0     0.362152     0.517047     0.304844  Biso 1.000000     H
    H   1.0     0.427116     0.044080     0.383867  Biso 1.000000     H
    H   1.0     0.373317     0.022630     0.303248  Biso 1.000000     H
    H   1.0     0.257091     0.417813     0.124254  Biso 1.000000     H
    H   1.0     0.333849     0.483297     0.109005  Biso 1.000000     H
    H   1.0     0.373089     0.147192     0.271502  Biso 1.000000     H
    H   1.0     0.428506     0.167595     0.351507  Biso 1.000000     H
    H   1.0     0.263232     0.420986     0.317655  Biso 1.000000     H
    H   1.0     0.233068     0.369062     0.241386  Biso 1.000000     H
    H   1.0     0.445998     0.006438     0.805351  Biso 1.000000     H
    H   1.0     0.553794     0.882454     0.838272  Biso 1.000000     H
    H   1.0     0.378692     0.446728     0.782387  Biso 1.000000     H
    H   1.0     0.362750     0.483110     0.695065  Biso 1.000000     H
    H   1.0     0.427019     0.955778     0.616357  Biso 1.000000     H
    H   1.0     0.373182     0.977066     0.697168  Biso 1.000000     H
    H   1.0     0.256519     0.582138     0.875528  Biso 1.000000     H
    H   1.0     0.333277     0.516872     0.890940  Biso 1.000000     H
    H   1.0     0.373090     0.852489     0.728841  Biso 1.000000     H
    H   1.0     0.428613     0.832249     0.648675  Biso 1.000000     H
    H   1.0     0.263892     0.579012     0.682191  Biso 1.000000     H
    H   1.0     0.233502     0.631039     0.758405  Biso 1.000000     H
    C   1.0     0.833227     0.746952     0.472502  Biso 1.000000     C
    C   1.0     0.926666     0.675221     0.948946  Biso 1.000000     C
    C   1.0     0.781829     0.855627     0.530490  Biso 1.000000     C
    C   1.0     0.926896     0.696333     0.867494  Biso 1.000000     C
    C   1.0     0.743736     0.738280     0.575264  Biso 1.000000     C
    C   1.0     0.833231     0.253228     0.527398  Biso 1.000000     C
    C   1.0     0.926659     0.324691     0.051384  Biso 1.000000     C
    C   1.0     0.781757     0.144529     0.469537  Biso 1.000000     C
    C   1.0     0.926945     0.303501     0.132814  Biso 1.000000     C
    C   1.0     0.744177     0.261854     0.424678  Biso 1.000000     C
    C   1.0     0.833340     0.527458     0.747602  Biso 1.000000     C
    C   1.0     0.926577     0.051030     0.675372  Biso 1.000000     C
    C   1.0     0.781683     0.469604     0.856230  Biso 1.000000     C
    C   1.0     0.926836     0.132561     0.696640  Biso 1.000000     C
    C   1.0     0.743982     0.424512     0.739173  Biso 1.000000     C
    C   1.0     0.833094     0.472448     0.252446  Biso 1.000000     C
    C   1.0     0.926739     0.948864     0.324845  Biso 1.000000     C
    C   1.0     0.781927     0.530565     0.144003  Biso 1.000000     C
    C   1.0     0.926983     0.867362     0.303495  Biso 1.000000     C
    C   1.0     0.743855     0.575332     0.261202  Biso 1.000000     C
    C   1.0     0.666882     0.253147     0.472474  Biso 1.000000     C
    C   1.0     0.573311     0.324778     0.948481  Biso 1.000000     C
    C   1.0     0.718211     0.144583     0.530524  Biso 1.000000     C
    C   1.0     0.573053     0.303538     0.867062  Biso 1.000000     C
    C   1.0     0.755949     0.262024     0.575171  Biso 1.000000     C
    C   1.0     0.666694     0.746890     0.527419  Biso 1.000000     C
    C   1.0     0.573445     0.675339     0.051169  Biso 1.000000     C
    C   1.0     0.718267     0.855698     0.469712  Biso 1.000000     C
    C   1.0     0.573199     0.696466     0.132624  Biso 1.000000     C
    C   1.0     0.756172     0.738468     0.424629  Biso 1.000000     C
    C   1.0     0.666889     0.472501     0.747617  Biso 1.000000     C
    C   1.0     0.573338     0.948918     0.675225  Biso 1.000000     C
    C   1.0     0.718018     0.530466     0.856197  Biso 1.000000     C
    C   1.0     0.573146     0.867429     0.696607  Biso 1.000000     C
    C   1.0     0.756292     0.575436     0.739112  Biso 1.000000     C
    C   1.0     0.666701     0.527417     0.252526  Biso 1.000000     C
    C   1.0     0.573430     0.051268     0.324520  Biso 1.000000     C
    C   1.0     0.718368     0.469547     0.143923  Biso 1.000000     C
    C   1.0     0.573133     0.132767     0.303162  Biso 1.000000     C
    C   1.0     0.755898     0.424511     0.261003  Biso 1.000000     C
    C   1.0     0.166804     0.253061     0.527482  Biso 1.000000     C
    C   1.0     0.073365     0.324793     0.051040  Biso 1.000000     C
    C   1.0     0.218200     0.144387     0.469495  Biso 1.000000     C
    C   1.0     0.073133     0.303679     0.132491  Biso 1.000000     C
    C   1.0     0.256293     0.261733     0.424722  Biso 1.000000     C
    C   1.0     0.166798     0.746785     0.472586  Biso 1.000000     C
    C   1.0     0.073369     0.675323     0.948602  Biso 1.000000     C
    C   1.0     0.218273     0.855485     0.530448  Biso 1.000000     C
    C   1.0     0.073086     0.696512     0.867171  Biso 1.000000     C
    C   1.0     0.255853     0.738158     0.575307  Biso 1.000000     C
    C   1.0     0.166693     0.472555     0.252380  Biso 1.000000     C
    C   1.0     0.073454     0.948984     0.324614  Biso 1.000000     C
    C   1.0     0.218349     0.530410     0.143757  Biso 1.000000     C
    C   1.0     0.073191     0.867452     0.303345  Biso 1.000000     C
    C   1.0     0.256049     0.575498     0.260811  Biso 1.000000     C
    C   1.0     0.166935     0.527563     0.747538  Biso 1.000000     C
    C   1.0     0.073291     0.051149     0.675141  Biso 1.000000     C
    C   1.0     0.218103     0.469448     0.855985  Biso 1.000000     C
    C   1.0     0.073050     0.132652     0.696491  Biso 1.000000     C
    C   1.0     0.256177     0.424677     0.738784  Biso 1.000000     C
    C   1.0     0.333146     0.746866     0.527510  Biso 1.000000     C
    C   1.0     0.426719     0.675235     0.051502  Biso 1.000000     C
    C   1.0     0.281819     0.855430     0.469461  Biso 1.000000     C
    C   1.0     0.426979     0.696475     0.132921  Biso 1.000000     C
    C   1.0     0.244081     0.737990     0.424814  Biso 1.000000     C
    C   1.0     0.333336     0.253123     0.472565  Biso 1.000000     C
    C   1.0     0.426584     0.324674     0.948814  Biso 1.000000     C
    C   1.0     0.281762     0.144315     0.530273  Biso 1.000000     C
    C   1.0     0.426829     0.303548     0.867358  Biso 1.000000     C
    C   1.0     0.243858     0.261546     0.575357  Biso 1.000000     C
    C   1.0     0.333143     0.527512     0.252369  Biso 1.000000     C
    C   1.0     0.426691     0.051094     0.324759  Biso 1.000000     C
    C   1.0     0.282014     0.469548     0.143784  Biso 1.000000     C
    C   1.0     0.426884     0.132583     0.303376  Biso 1.000000     C
    C   1.0     0.243739     0.424575     0.260871  Biso 1.000000     C
    C   1.0     0.333329     0.472594     0.747462  Biso 1.000000     C
    C   1.0     0.426602     0.948745     0.675464  Biso 1.000000     C
    C   1.0     0.281662     0.530466     0.856060  Biso 1.000000     C
    C   1.0     0.426897     0.867245     0.696821  Biso 1.000000     C
    C   1.0     0.244134     0.575498     0.738982  Biso 1.000000     C
    C   1.0     0.000016     0.784872     0.977669  Biso 1.000000     C
    C   1.0    -0.000070     0.806341     0.896466  Biso 1.000000     C
    C   1.0    -0.000012     0.215139     0.022317  Biso 1.000000     C
    C   1.0     0.000073     0.193673     0.103520  Biso 1.000000     C
    C   1.0    -0.000128     0.021947     0.784640  Biso 1.000000     C
    C   1.0    -0.000197     0.103225     0.806254  Biso 1.000000     C
    C   1.0     0.000132     0.978066     0.215346  Biso 1.000000     C
    C   1.0     0.000201     0.896787     0.193735  Biso 1.000000     C
    C   1.0     0.499943     0.215130     0.977549  Biso 1.000000     C
    C   1.0     0.499834     0.193634     0.896349  Biso 1.000000     C
    C   1.0     0.500087     0.784883     0.022434  Biso 1.000000     C
    C   1.0     0.500196     0.806377     0.103634  Biso 1.000000     C
    C   1.0     0.499920     0.978066     0.784712  Biso 1.000000     C
    C   1.0     0.499939     0.896804     0.806376  Biso 1.000000     C
    C   1.0     0.500109     0.021945     0.215270  Biso 1.000000     C
    C   1.0     0.500091     0.103207     0.193607  Biso 1.000000     C
    N   1.0     0.812705     0.780593     0.543896  Biso 1.000000     N
    N   1.0     0.812911     0.219528     0.456043  Biso 1.000000     N
    N   1.0     0.812780     0.456034     0.781316  Biso 1.000000     N
    N   1.0     0.812786     0.543959     0.218925  Biso 1.000000     N
    N   1.0     0.687158     0.219598     0.543886  Biso 1.000000     N
    N   1.0     0.687272     0.780691     0.456108  Biso 1.000000     N
    N   1.0     0.687279     0.543965     0.781270  Biso 1.000000     N
    N   1.0     0.687169     0.455988     0.218815  Biso 1.000000     N
    N   1.0     0.187322     0.219421     0.456087  Biso 1.000000     N
    N   1.0     0.187120     0.780486     0.543940  Biso 1.000000     N
    N   1.0     0.187247     0.543982     0.218669  Biso 1.000000     N
    N   1.0     0.187250     0.456055     0.781062  Biso 1.000000     N
    N   1.0     0.312873     0.780416     0.456097  Biso 1.000000     N
    N   1.0     0.312755     0.219322     0.543875  Biso 1.000000     N
    N   1.0     0.312748     0.456051     0.218713  Biso 1.000000     N
    N   1.0     0.312866     0.544026     0.781169  Biso 1.000000     N
    N   1.0    -0.000057     0.740624     0.849130  Biso 1.000000     N
    N   1.0     0.000026     0.704428     0.986214  Biso 1.000000     N
    N   1.0     0.000060     0.259388     0.150859  Biso 1.000000     N
    N   1.0    -0.000023     0.295583     0.013777  Biso 1.000000     N
    N   1.0    -0.000113     0.150747     0.740728  Biso 1.000000     N
    N   1.0    -0.000087     0.013553     0.704298  Biso 1.000000     N
    N   1.0     0.000117     0.849260     0.259257  Biso 1.000000     N
    N   1.0     0.000090     0.986459     0.295688  Biso 1.000000     N
    N   1.0     0.499894     0.259339     0.849013  Biso 1.000000     N
    N   1.0     0.499965     0.295576     0.986087  Biso 1.000000     N
    N   1.0     0.500136     0.740675     0.150974  Biso 1.000000     N
    N   1.0     0.500065     0.704436     0.013894  Biso 1.000000     N
    N   1.0     0.500011     0.849228     0.740878  Biso 1.000000     N
    N   1.0     0.499941     0.986395     0.704365  Biso 1.000000     N
    N   1.0     0.500019     0.150784     0.259105  Biso 1.000000     N
    N   1.0     0.500089     0.013620     0.295618  Biso 1.000000     N
   Cu   1.0     0.919643     0.790990     0.612864  Biso 1.000000    Cu
   Cu   1.0     0.919829     0.209032     0.387077  Biso 1.000000    Cu
   Cu   1.0     0.919676     0.387040     0.791316  Biso 1.000000    Cu
   Cu   1.0     0.919745     0.612967     0.208825  Biso 1.000000    Cu
   Cu   1.0     0.580218     0.209065     0.612882  Biso 1.000000    Cu
   Cu   1.0     0.580393     0.791057     0.387125  Biso 1.000000    Cu
   Cu   1.0     0.580364     0.612966     0.791276  Biso 1.000000    Cu
   Cu   1.0     0.580284     0.387007     0.208702  Biso 1.000000    Cu
   Cu   1.0     0.080386     0.209022     0.387120  Biso 1.000000    Cu
   Cu   1.0     0.080201     0.790980     0.612907  Biso 1.000000    Cu
   Cu   1.0     0.080352     0.612974     0.208669  Biso 1.000000    Cu
   Cu   1.0     0.080287     0.387046     0.791161  Biso 1.000000    Cu
   Cu   1.0     0.419813     0.790948     0.387102  Biso 1.000000    Cu
   Cu   1.0     0.419636     0.208955     0.612859  Biso 1.000000    Cu
   Cu   1.0     0.419664     0.387047     0.208708  Biso 1.000000    Cu
   Cu   1.0     0.419749     0.613006     0.791283  Biso 1.000000    Cu
   Cu   1.0    -0.000043     0.900168     0.677594  Biso 1.000000    Cu
   Cu   1.0    -0.000046     0.774987     0.737452  Biso 1.000000    Cu
   Cu   1.0     0.000046     0.099844     0.322391  Biso 1.000000    Cu
   Cu   1.0     0.000049     0.225025     0.262535  Biso 1.000000    Cu
   Cu   1.0    -0.000025     0.322252     0.900332  Biso 1.000000    Cu
   Cu   1.0    -0.000047     0.262525     0.775104  Biso 1.000000    Cu
   Cu   1.0     0.000028     0.677760     0.099655  Biso 1.000000    Cu
   Cu   1.0     0.000051     0.737485     0.224880  Biso 1.000000    Cu
   Cu   1.0     0.499966     0.099799     0.677596  Biso 1.000000    Cu
   Cu   1.0     0.499944     0.225003     0.737400  Biso 1.000000    Cu
   Cu   1.0     0.500063     0.900214     0.322388  Biso 1.000000    Cu
   Cu   1.0     0.500086     0.775010     0.262586  Biso 1.000000    Cu
   Cu   1.0     0.500027     0.677768     0.900399  Biso 1.000000    Cu
   Cu   1.0     0.500030     0.737474     0.775163  Biso 1.000000    Cu
   Cu   1.0     0.500003     0.322245     0.099584  Biso 1.000000    Cu
   Cu   1.0     0.500000     0.262539     0.224821  Biso 1.000000    Cu
    I   1.0     0.855198     0.852792     0.734645  Biso 1.000000     I
    I   1.0     0.855392     0.146877     0.265608  Biso 1.000000     I
    I   1.0     0.855319     0.265222     0.853567  Biso 1.000000     I
    I   1.0     0.855492     0.734799     0.146916  Biso 1.000000     I
    I   1.0     0.644648     0.147046     0.734344  Biso 1.000000     I
    I   1.0     0.644899     0.853086     0.265455  Biso 1.000000     I
    I   1.0     0.644636     0.734893     0.853192  Biso 1.000000     I
    I   1.0     0.644622     0.265319     0.146269  Biso 1.000000     I
    I   1.0     0.144832     0.147220     0.265341  Biso 1.000000     I
    I   1.0     0.144637     0.853135     0.734378  Biso 1.000000     I
    I   1.0     0.144710     0.734791     0.146419  Biso 1.000000     I
    I   1.0     0.144538     0.265213     0.853071  Biso 1.000000     I
    I   1.0     0.355382     0.852966     0.265640  Biso 1.000000     I
    I   1.0     0.355131     0.146926     0.734529  Biso 1.000000     I
    I   1.0     0.355394     0.265120     0.146791  Biso 1.000000     I
    I   1.0     0.355409     0.734693     0.853714  Biso 1.000000     I
    I   1.0     0.000092     0.893194     0.530035  Biso 1.000000     I
    I   1.0    -0.000286     0.665193     0.638366  Biso 1.000000     I
    I   1.0    -0.000089     0.106819     0.469951  Biso 1.000000     I
    I   1.0     0.000289     0.334820     0.361619  Biso 1.000000     I
    I   1.0    -0.000172     0.469939     0.893427  Biso 1.000000     I
    I   1.0     0.000046     0.361819     0.665627  Biso 1.000000     I
    I   1.0     0.000176     0.530074     0.106558  Biso 1.000000     I
    I   1.0    -0.000041     0.638193     0.334358  Biso 1.000000     I
    I   1.0     0.499982     0.106761     0.530040  Biso 1.000000     I
    I   1.0     0.499827     0.334805     0.638346  Biso 1.000000     I
    I   1.0     0.500047     0.893252     0.469944  Biso 1.000000     I
    I   1.0     0.500203     0.665209     0.361638  Biso 1.000000     I
    I   1.0     0.499747     0.530092     0.893469  Biso 1.000000     I
    I   1.0     0.500349     0.638210     0.665670  Biso 1.000000     I
    I   1.0     0.500285     0.469921     0.106515  Biso 1.000000     I
    I   1.0     0.499681     0.361801     0.334314  Biso 1.000000     I
