#======================================================================

# CRYSTAL DATA

#----------------------------------------------------------------------

data_VESTA_phase_1


_pd_phase_name                         MOF
_cell_length_a                         15.69300
_cell_length_b                         15.69300
_cell_length_c                         15.69300
_cell_angle_alpha                      109.47100
_cell_angle_beta                       109.47100
_cell_angle_gamma                      109.47100
_symmetry_space_group_name_H-M         "P 1"
_symmetry_Int_Tables_number            1

loop_
_symmetry_equiv_pos_as_xyz
   "x, y, z"

loop_
   _atom_site_label
   _atom_site_occupancy
   _atom_site_fract_x
   _atom_site_fract_y
   _atom_site_fract_z
   _atom_site_adp_type
   _atom_site_B_iso_or_equiv
   _atom_site_type_symbol
    H   1.0     0.599356     0.488701     0.355457  Biso 1.000000     H
    H   1.0     0.144040     0.251992     0.675836  Biso 1.000000     H
    H   1.0     0.875468     0.534386     0.108329  Biso 1.000000     H
    H   1.0     0.439058     0.773367     0.908763  Biso 1.000000     H
    H   1.0     0.112619     0.876596     0.467973  Biso 1.000000     H
    H   1.0     0.911582     0.427060     0.776171  Biso 1.000000     H
    H   1.0     0.344305     0.589306     0.480673  Biso 1.000000     H
    H   1.0     0.683468     0.143690     0.255374  Biso 1.000000     H
    H   1.0     0.254523     0.684411     0.145954  Biso 1.000000     H
    H   1.0     0.483133     0.345281     0.589943  Biso 1.000000     H
    H   1.0     0.771551     0.908573     0.355438  Biso 1.000000     H
    H   1.0     0.537992     0.116460     0.884806  Biso 1.000000     H
    H   1.0     0.252099     0.143403     0.675944  Biso 1.000000     H
    H   1.0     0.491278     0.597279     0.355561  Biso 1.000000     H
    H   1.0     0.773936     0.436669     0.908065  Biso 1.000000     H
    H   1.0     0.538448     0.873889     0.109073  Biso 1.000000     H
    H   1.0     0.591135     0.343378     0.481295  Biso 1.000000     H
    H   1.0     0.147965     0.686026     0.256201  Biso 1.000000     H
    H   1.0     0.874391     0.108174     0.463310  Biso 1.000000     H
    H   1.0     0.434155     0.912392     0.776361  Biso 1.000000     H
    H   1.0     0.117514     0.535469     0.885176  Biso 1.000000     H
    H   1.0     0.911151     0.768899     0.359844  Biso 1.000000     H
    H   1.0     0.344883     0.481052     0.589078  Biso 1.000000     H
    H   1.0     0.682545     0.250038     0.144914  Biso 1.000000     H
    H   1.0     0.615111     0.682317     0.134676  Biso 1.000000     H
    H   1.0     0.683427     0.611669     0.133512  Biso 1.000000     H
    H   1.0     0.744716     0.741168     0.236778  Biso 1.000000     H
    H   1.0     0.504364     0.504022     0.757808  Biso 1.000000     H
    H   1.0     0.557410     0.486697     0.865654  Biso 1.000000     H
    H   1.0     0.488357     0.556487     0.866729  Biso 1.000000     H
    H   1.0     0.529421     0.264084     0.000000  Biso 1.000000     H
    H   1.0     0.472302     0.314633     0.949972  Biso 1.000000     H
    H   1.0     0.533014     0.378384     0.072374  Biso 1.000000     H
    H   1.0     0.380444     0.530800     0.071518  Biso 1.000000     H
    H   1.0     0.314001     0.471236     0.949263  Biso 1.000000     H
    H   1.0     0.257320     0.520503     0.009117  Biso 1.000000     H
    H   1.0     0.009638     0.554344     0.263286  Biso 1.000000     H
    H   1.0     0.950793     0.465510     0.295092  Biso 1.000000     H
    H   1.0     0.079035     0.536088     0.365555  Biso 1.000000     H
    H   1.0     0.007204     0.610922     0.469238  Biso 1.000000     H
    H   1.0     0.073786     0.403740     0.536653  Biso 1.000000     H
    H   1.0     0.947182     0.318799     0.469771  Biso 1.000000     H
    H   1.0     0.023902     0.279025     0.525396  Biso 1.000000     H
    H   1.0     0.158477     0.642813     0.704856  Biso 1.000000     H
    H   1.0     0.182094     0.730006     0.655432  Biso 1.000000     H
    H   1.0     0.278810     0.761372     0.777426  Biso 1.000000     H
    H   1.0     0.846460     0.556397     0.479460  Biso 1.000000     H
    H   1.0     0.876945     0.495877     0.554149  Biso 1.000000     H
    H   1.0     0.755166     0.491462     0.510423  Biso 1.000000     H
    H   1.0     0.559674     0.843541     0.480048  Biso 1.000000     H
    H   1.0     0.493299     0.751782     0.509777  Biso 1.000000     H
    H   1.0     0.499393     0.874342     0.554899  Biso 1.000000     H
    H   1.0     0.731269     0.181211     0.655999  Biso 1.000000     H
    H   1.0     0.638574     0.150556     0.698159  Biso 1.000000     H
    H   1.0     0.755872     0.272390     0.777408  Biso 1.000000     H
    H   1.0     0.469613     0.949577     0.297816  Biso 1.000000     H
    H   1.0     0.551280     0.006007     0.264173  Biso 1.000000     H
    H   1.0     0.535227     0.075963     0.368112  Biso 1.000000     H
    H   1.0     0.611780     0.003968     0.470535  Biso 1.000000     H
    H   1.0     0.321660     0.947402     0.469862  Biso 1.000000     H
    H   1.0     0.400299     0.072255     0.536411  Biso 1.000000     H
    H   1.0     0.276162     0.021551     0.526351  Biso 1.000000     H
    C   1.0     0.596195     0.540183     0.323947  Biso 1.000000     C
    C   1.0     0.226098     0.279241     0.701250  Biso 1.000000     C
    C   1.0     0.793351     0.477573     0.054289  Biso 1.000000     C
    C   1.0     0.436282     0.747078     0.964042  Biso 1.000000     C
    C   1.0     0.061401     0.794872     0.439456  Biso 1.000000     C
    C   1.0     0.966491     0.428342     0.748448  Biso 1.000000     C
    C   1.0     0.321660     0.593273     0.539466  Biso 1.000000     C
    C   1.0     0.707202     0.225257     0.281416  Biso 1.000000     C
    C   1.0     0.282012     0.707780     0.227649  Biso 1.000000     C
    C   1.0     0.540748     0.321003     0.593301  Biso 1.000000     C
    C   1.0     0.742882     0.960819     0.380843  Biso 1.000000     C
    C   1.0     0.483329     0.061894     0.802295  Biso 1.000000     C
    C   1.0     0.279594     0.225482     0.701302  Biso 1.000000     C
    C   1.0     0.542686     0.593935     0.323993  Biso 1.000000     C
    C   1.0     0.747797     0.433828     0.963435  Biso 1.000000     C
    C   1.0     0.480987     0.791961     0.054903  Biso 1.000000     C
    C   1.0     0.594355     0.320227     0.539653  Biso 1.000000     C
    C   1.0     0.229306     0.708653     0.282175  Biso 1.000000     C
    C   1.0     0.793046     0.057203     0.436298  Biso 1.000000     C
    C   1.0     0.434713     0.967172     0.748587  Biso 1.000000     C
    C   1.0     0.063077     0.482002     0.802428  Biso 1.000000     C
    C   1.0     0.963147     0.739541     0.383830  Biso 1.000000     C
    C   1.0     0.321811     0.539562     0.593017  Biso 1.000000     C
    C   1.0     0.706697     0.277873     0.226802  Biso 1.000000     C
    C   1.0     0.669850     0.667197     0.183840  Biso 1.000000     C
    C   1.0     0.627698     0.625169     0.242140  Biso 1.000000     C
    C   1.0     0.490362     0.489427     0.817171  Biso 1.000000     C
    C   1.0     0.391267     0.390511     0.769112  Biso 1.000000     C
    C   1.0     0.531433     0.326349     0.003887  Biso 1.000000     C
    C   1.0     0.629290     0.378480     0.002517  Biso 1.000000     C
    C   1.0     0.328024     0.530305     0.004092  Biso 1.000000     C
    C   1.0     0.380747     0.628081     0.002825  Biso 1.000000     C
    C   1.0     0.009264     0.540697     0.327423  Biso 1.000000     C
    C   1.0     0.007886     0.628689     0.406345  Biso 1.000000     C
    C   1.0     0.010896     0.345836     0.536933  Biso 1.000000     C
    C   1.0     0.009966     0.391678     0.636313  Biso 1.000000     C
    C   1.0     0.218006     0.696938     0.697847  Biso 1.000000     C
    C   1.0     0.261094     0.642388     0.642577  Biso 1.000000     C
    C   1.0     0.814279     0.488347     0.488501  Biso 1.000000     C
    C   1.0     0.769535     0.389660     0.390459  Biso 1.000000     C
    C   1.0     0.491341     0.811713     0.488786  Biso 1.000000     C
    C   1.0     0.393102     0.768527     0.390957  Biso 1.000000     C
    C   1.0     0.694560     0.213356     0.696029  Biso 1.000000     C
    C   1.0     0.641621     0.258063     0.641699  Biso 1.000000     C
    C   1.0     0.539114     0.005934     0.329128  Biso 1.000000     C
    C   1.0     0.627976     0.004345     0.406716  Biso 1.000000     C
    C   1.0     0.343236     0.009130     0.537190  Biso 1.000000     C
    C   1.0     0.390521     0.008455     0.636485  Biso 1.000000     C
    N   1.0     0.649819     0.560041     0.272093  Biso 1.000000     N
    N   1.0     0.296878     0.383512     0.744146  Biso 1.000000     N
    N   1.0     0.724138     0.448461     0.089114  Biso 1.000000     N
    N   1.0     0.372887     0.643504     0.931329  Biso 1.000000     N
    N   1.0     0.099297     0.731963     0.454097  Biso 1.000000     N
    N   1.0     0.933129     0.371311     0.643460  Biso 1.000000     N
    N   1.0     0.283331     0.658307     0.571055  Biso 1.000000     N
    N   1.0     0.746948     0.296108     0.384793  Biso 1.000000     N
    N   1.0     0.385551     0.745669     0.296643  Biso 1.000000     N
    N   1.0     0.570833     0.281725     0.657775  Biso 1.000000     N
    N   1.0     0.642727     0.924496     0.359507  Biso 1.000000     N
    N   1.0     0.458702     0.095717     0.731238  Biso 1.000000     N
    N   1.0     0.383958     0.296008     0.744233  Biso 1.000000     N
    N   1.0     0.562717     0.647549     0.272171  Biso 1.000000     N
    N   1.0     0.644107     0.371172     0.930919  Biso 1.000000     N
    N   1.0     0.451536     0.722646     0.089530  Biso 1.000000     N
    N   1.0     0.658163     0.280500     0.570518  Biso 1.000000     N
    N   1.0     0.299712     0.747074     0.385333  Biso 1.000000     N
    N   1.0     0.730984     0.095460     0.452976  Biso 1.000000     N
    N   1.0     0.376109     0.933600     0.643786  Biso 1.000000     N
    N   1.0     0.097110     0.458669     0.731351  Biso 1.000000     N
    N   1.0     0.926436     0.638736     0.360304  Biso 1.000000     N
    N   1.0     0.283531     0.570808     0.658158  Biso 1.000000     N
    N   1.0     0.746156     0.381799     0.295958  Biso 1.000000     N
   Cd   1.0     0.762874     0.507996     0.255915  Biso 1.000000    Cd
   Cd   1.0     0.262108     0.513872     0.766569  Biso 1.000000    Cd
   Cd   1.0     0.263876     0.767876     0.515196  Biso 1.000000    Cd
   Cd   1.0     0.767403     0.260195     0.514541  Biso 1.000000    Cd
   Cd   1.0     0.511449     0.761150     0.256313  Biso 1.000000    Cd
   Cd   1.0     0.513935     0.260706     0.766299  Biso 1.000000    Cd
