#======================================================================

# CRYSTAL DATA

#----------------------------------------------------------------------

data_VESTA_phase_1


_pd_phase_name                         MOF
_cell_length_a                         15.83000
_cell_length_b                         15.83800
_cell_length_c                         15.83000
_cell_angle_alpha                      109.39600
_cell_angle_beta                       109.29700
_cell_angle_gamma                      109.30900
_symmetry_space_group_name_H-M         "P 1"
_symmetry_Int_Tables_number            1

loop_
_symmetry_equiv_pos_as_xyz
   "x, y, z"

loop_
   _atom_site_label
   _atom_site_occupancy
   _atom_site_fract_x
   _atom_site_fract_y
   _atom_site_fract_z
   _atom_site_adp_type
   _atom_site_B_iso_or_equiv
   _atom_site_type_symbol
    H   1.0     0.589861     0.482265     0.348988  Biso 1.000000     H
    H   1.0     0.133652     0.241587     0.653527  Biso 1.000000     H
    H   1.0     0.866586     0.516536     0.104184  Biso 1.000000     H
    H   1.0     0.406948     0.759224     0.890787  Biso 1.000000     H
    H   1.0     0.103968     0.866762     0.516725  Biso 1.000000     H
    H   1.0     0.890011     0.403095     0.758907  Biso 1.000000     H
    H   1.0     0.348594     0.589949     0.482206  Biso 1.000000     H
    H   1.0     0.653007     0.133557     0.240659  Biso 1.000000     H
    H   1.0     0.241533     0.655798     0.133996  Biso 1.000000     H
    H   1.0     0.483821     0.350733     0.590782  Biso 1.000000     H
    H   1.0     0.759369     0.890566     0.405746  Biso 1.000000     H
    H   1.0     0.516986     0.105237     0.866746  Biso 1.000000     H
    H   1.0     0.241130     0.134068     0.653607  Biso 1.000000     H
    H   1.0     0.482107     0.589451     0.348860  Biso 1.000000     H
    H   1.0     0.758947     0.409106     0.890247  Biso 1.000000     H
    H   1.0     0.514988     0.866658     0.104727  Biso 1.000000     H
    H   1.0     0.591148     0.350108     0.483093  Biso 1.000000     H
    H   1.0     0.133925     0.656018     0.241452  Biso 1.000000     H
    H   1.0     0.866772     0.104391     0.512895  Biso 1.000000     H
    H   1.0     0.409027     0.891432     0.759496  Biso 1.000000     H
    H   1.0     0.103783     0.511484     0.866783  Biso 1.000000     H
    H   1.0     0.890187     0.758931     0.408533  Biso 1.000000     H
    H   1.0     0.348446     0.482466     0.589551  Biso 1.000000     H
    H   1.0     0.653126     0.240996     0.133224  Biso 1.000000     H
    H   1.0     0.615363     0.684668     0.140303  Biso 1.000000     H
    H   1.0     0.682861     0.614366     0.138557  Biso 1.000000     H
    H   1.0     0.741711     0.740512     0.242756  Biso 1.000000     H
    H   1.0     0.495547     0.496614     0.753486  Biso 1.000000     H
    H   1.0     0.542515     0.473703     0.857177  Biso 1.000000     H
    H   1.0     0.473736     0.542738     0.858275  Biso 1.000000     H
    H   1.0     0.505042     0.257025     0.000000  Biso 1.000000     H
    H   1.0     0.457930     0.314723     0.932536  Biso 1.000000     H
    H   1.0     0.526947     0.383256     0.069704  Biso 1.000000     H
    H   1.0     0.385520     0.525737     0.068011  Biso 1.000000     H
    H   1.0     0.312572     0.457423     0.930970  Biso 1.000000     H
    H   1.0     0.259358     0.505881     0.004882  Biso 1.000000     H
    H   1.0     0.003252     0.506096     0.257729  Biso 1.000000     H
    H   1.0     0.932249     0.457951     0.313241  Biso 1.000000     H
    H   1.0     0.069296     0.526800     0.383841  Biso 1.000000     H
    H   1.0     0.068796     0.388294     0.526253  Biso 1.000000     H
    H   1.0     0.931753     0.316706     0.457396  Biso 1.000000     H
    H   1.0     0.003868     0.261062     0.503183  Biso 1.000000     H
    H   1.0     0.140604     0.616516     0.685620  Biso 1.000000     H
    H   1.0     0.139088     0.684099     0.615476  Biso 1.000000     H
    H   1.0     0.243272     0.742729     0.741528  Biso 1.000000     H
    H   1.0     0.859107     0.542320     0.473696  Biso 1.000000     H
    H   1.0     0.857993     0.473236     0.542357  Biso 1.000000     H
    H   1.0     0.754621     0.496723     0.495935  Biso 1.000000     H
    H   1.0     0.542471     0.856757     0.473928  Biso 1.000000     H
    H   1.0     0.495088     0.751925     0.495144  Biso 1.000000     H
    H   1.0     0.473554     0.856571     0.542862  Biso 1.000000     H
    H   1.0     0.684970     0.140363     0.614788  Biso 1.000000     H
    H   1.0     0.612257     0.136314     0.679852  Biso 1.000000     H
    H   1.0     0.738571     0.241065     0.741643  Biso 1.000000     H
    H   1.0     0.457730     0.931999     0.315925  Biso 1.000000     H
    H   1.0     0.503658     0.001873     0.258616  Biso 1.000000     H
    H   1.0     0.526575     0.069094     0.385555  Biso 1.000000     H
    H   1.0     0.313789     0.932548     0.457840  Biso 1.000000     H
    H   1.0     0.382730     0.069628     0.526647  Biso 1.000000     H
    H   1.0     0.256692     0.001908     0.505383  Biso 1.000000     H
    C   1.0     0.588200     0.534889     0.319566  Biso 1.000000     C
    C   1.0     0.215285     0.268891     0.681881  Biso 1.000000     C
    C   1.0     0.784982     0.463759     0.050869  Biso 1.000000     C
    C   1.0     0.409066     0.731832     0.945403  Biso 1.000000     C
    C   1.0     0.050800     0.785143     0.463786  Biso 1.000000     C
    C   1.0     0.944795     0.406543     0.731501  Biso 1.000000     C
    C   1.0     0.319299     0.588512     0.535019  Biso 1.000000     C
    C   1.0     0.681630     0.215232     0.268076  Biso 1.000000     C
    C   1.0     0.268695     0.683501     0.215561  Biso 1.000000     C
    C   1.0     0.535962     0.320668     0.588734  Biso 1.000000     C
    C   1.0     0.731861     0.945142     0.408102  Biso 1.000000     C
    C   1.0     0.463935     0.051785     0.785169  Biso 1.000000     C
    C   1.0     0.268475     0.215697     0.681936  Biso 1.000000     C
    C   1.0     0.534876     0.587951     0.319513  Biso 1.000000     C
    C   1.0     0.731718     0.410557     0.944960  Biso 1.000000     C
    C   1.0     0.462552     0.784999     0.051306  Biso 1.000000     C
    C   1.0     0.589100     0.320390     0.535455  Biso 1.000000     C
    C   1.0     0.215461     0.683635     0.268749  Biso 1.000000     C
    C   1.0     0.785017     0.050975     0.461169  Biso 1.000000     C
    C   1.0     0.410506     0.945948     0.732086  Biso 1.000000     C
    C   1.0     0.050612     0.460197     0.784878  Biso 1.000000     C
    C   1.0     0.944971     0.731786     0.410233  Biso 1.000000     C
    C   1.0     0.319244     0.535323     0.588156  Biso 1.000000     C
    C   1.0     0.681709     0.268408     0.214929  Biso 1.000000     C
    C   1.0     0.668085     0.667964     0.188393  Biso 1.000000     C
    C   1.0     0.623217     0.623103     0.242707  Biso 1.000000     C
    C   1.0     0.477733     0.478137     0.808895  Biso 1.000000     C
    C   1.0     0.379336     0.379725     0.756294  Biso 1.000000     C
    C   1.0     0.522813     0.330258     0.000840  Biso 1.000000     C
    C   1.0     0.621100     0.375267    -0.000347  Biso 1.000000     C
    C   1.0     0.330841     0.522529     0.000958  Biso 1.000000     C
    C   1.0     0.375062     0.620921    -0.000170  Biso 1.000000     C
    C   1.0     0.001229     0.523092     0.330182  Biso 1.000000     C
    C   1.0    -0.000145     0.621301     0.375178  Biso 1.000000     C
    C   1.0     0.001081     0.333249     0.521844  Biso 1.000000     C
    C   1.0    -0.000333     0.375581     0.620443  Biso 1.000000     C
    C   1.0     0.188768     0.669152     0.668895  Biso 1.000000     C
    C   1.0     0.242794     0.623993     0.623687  Biso 1.000000     C
    C   1.0     0.809714     0.477867     0.477738  Biso 1.000000     C
    C   1.0     0.756664     0.379387     0.379159  Biso 1.000000     C
    C   1.0     0.477523     0.807928     0.477799  Biso 1.000000     C
    C   1.0     0.379259     0.756357     0.379494  Biso 1.000000     C
    C   1.0     0.666960     0.187324     0.667023  Biso 1.000000     C
    C   1.0     0.622988     0.242485     0.622797  Biso 1.000000     C
    C   1.0     0.522206     0.000668     0.331554  Biso 1.000000     C
    C   1.0     0.620742    -0.000457     0.375051  Biso 1.000000     C
    C   1.0     0.329718     0.001106     0.522816  Biso 1.000000     C
    C   1.0     0.374993     0.000173     0.621199  Biso 1.000000     C
    N   1.0     0.643936     0.557235     0.270947  Biso 1.000000     N
    N   1.0     0.285552     0.372528     0.728919  Biso 1.000000     N
    N   1.0     0.714870     0.441313     0.085197  Biso 1.000000     N
    N   1.0     0.353850     0.628158     0.913102  Biso 1.000000     N
    N   1.0     0.085265     0.715119     0.441492  Biso 1.000000     N
    N   1.0     0.912828     0.353173     0.627602  Biso 1.000000     N
    N   1.0     0.270910     0.644465     0.557606  Biso 1.000000     N
    N   1.0     0.729058     0.285572     0.371837  Biso 1.000000     N
    N   1.0     0.372183     0.729503     0.285756  Biso 1.000000     N
    N   1.0     0.557503     0.271350     0.643835  Biso 1.000000     N
    N   1.0     0.628058     0.912862     0.353771  Biso 1.000000     N
    N   1.0     0.441346     0.085828     0.714887  Biso 1.000000     N
    N   1.0     0.372131     0.285943     0.729013  Biso 1.000000     N
    N   1.0     0.557146     0.643619     0.270869  Biso 1.000000     N
    N   1.0     0.628167     0.354715     0.912830  Biso 1.000000     N
    N   1.0     0.440923     0.714697     0.085456  Biso 1.000000     N
    N   1.0     0.644012     0.270910     0.557121  Biso 1.000000     N
    N   1.0     0.285541     0.729732     0.372339  Biso 1.000000     N
    N   1.0     0.714589     0.085122     0.440168  Biso 1.000000     N
    N   1.0     0.354373     0.913559     0.628471  Biso 1.000000     N
    N   1.0     0.085070     0.440528     0.714496  Biso 1.000000     N
    N   1.0     0.913009     0.628258     0.354321  Biso 1.000000     N
    N   1.0     0.270833     0.557894     0.644112  Biso 1.000000     N
    N   1.0     0.729194     0.372132     0.285332  Biso 1.000000     N
   Cd   1.0     0.750542     0.499833     0.248939  Biso 1.000000    Cd
   Cd   1.0     0.248815     0.500097     0.750352  Biso 1.000000    Cd
   Cd   1.0     0.248994     0.750936     0.500134  Biso 1.000000    Cd
   Cd   1.0     0.750278     0.248769     0.499274  Biso 1.000000    Cd
   Cd   1.0     0.499809     0.750242     0.249139  Biso 1.000000    Cd
   Cd   1.0     0.499815     0.249386     0.750237  Biso 1.000000    Cd
