#======================================================================

# CRYSTAL DATA

#----------------------------------------------------------------------

data_VESTA_phase_1


_pd_phase_name                         MOF
_cell_length_a                         13.44900
_cell_length_b                         13.57100
_cell_length_c                         13.96200
_cell_angle_alpha                      77.61500
_cell_angle_beta                       65.01100
_cell_angle_gamma                      63.88100
_symmetry_space_group_name_H-M         "P 1"
_symmetry_Int_Tables_number            1

loop_
_symmetry_equiv_pos_as_xyz
   "x, y, z"

loop_
   _atom_site_label
   _atom_site_occupancy
   _atom_site_fract_x
   _atom_site_fract_y
   _atom_site_fract_z
   _atom_site_adp_type
   _atom_site_B_iso_or_equiv
   _atom_site_type_symbol
    H   1.0     0.148328     0.476164     0.564180  Biso 1.000000     H
    H   1.0     0.338310     0.320527     0.483810  Biso 1.000000     H
    H   1.0     0.645664     0.180277     0.105303  Biso 1.000000     H
    H   1.0     0.842068     0.171109     0.983179  Biso 1.000000     H
    H   1.0     0.585202     0.660890     0.976838  Biso 1.000000     H
    H   1.0     0.578120     0.947437     0.100256  Biso 1.000000     H
    H   1.0     0.990648     0.843710     0.114482  Biso 1.000000     H
    H   1.0     0.277592     0.975529     0.560024  Biso 1.000000     H
    H   1.0     0.524385     0.634888     0.335406  Biso 1.000000     H
    H   1.0     0.784905     0.869832     0.235073  Biso 1.000000     H
    H   1.0     0.488445     0.806211     0.402517  Biso 1.000000     H
    H   1.0     0.640236     0.478903     0.258746  Biso 1.000000     H
    H   1.0     0.624625     0.779756     0.019063  Biso 1.000000     H
    H   1.0     0.087824     0.954559     0.629081  Biso 1.000000     H
    H   1.0     0.688590     0.311464     0.178143  Biso 1.000000     H
    H   1.0     0.011511     0.404432     0.368463  Biso 1.000000     H
    H   1.0     0.640890     0.484345     0.906567  Biso 1.000000     H
    H   1.0     0.208941     0.255035     0.294690  Biso 1.000000     H
    H   1.0     0.267138     0.066098     0.260441  Biso 1.000000     H
    H   1.0     0.074439     0.050020     0.316518  Biso 1.000000     H
    H   1.0     0.851481     0.523330     0.436408  Biso 1.000000     H
    H   1.0     0.661539     0.679089     0.516640  Biso 1.000000     H
    H   1.0     0.354382     0.819660     0.894713  Biso 1.000000     H
    H   1.0     0.157979     0.828829     0.016845  Biso 1.000000     H
    H   1.0     0.414868     0.339045     0.023106  Biso 1.000000     H
    H   1.0     0.421895     0.052521     0.899711  Biso 1.000000     H
    H   1.0     0.009399     0.156245     0.885571  Biso 1.000000     H
    H   1.0     0.722794     0.023776     0.439733  Biso 1.000000     H
    H   1.0     0.475565     0.365094     0.664566  Biso 1.000000     H
    H   1.0     0.215136     0.130119     0.764970  Biso 1.000000     H
    H   1.0     0.511519     0.193762     0.597451  Biso 1.000000     H
    H   1.0     0.359695     0.521082     0.741263  Biso 1.000000     H
    H   1.0     0.375407     0.220197     0.980902  Biso 1.000000     H
    H   1.0     0.912636     0.044614     0.370623  Biso 1.000000     H
    H   1.0     0.311333     0.688510     0.821890  Biso 1.000000     H
    H   1.0     0.988884     0.596219     0.630885  Biso 1.000000     H
    H   1.0     0.359167     0.515579     0.093403  Biso 1.000000     H
    H   1.0     0.791394     0.745482     0.704787  Biso 1.000000     H
    H   1.0     0.732474     0.934650     0.739658  Biso 1.000000     H
    H   1.0     0.925060     0.950950     0.683621  Biso 1.000000     H
    C   1.0     0.155311     0.429325     0.505743  Biso 1.000000     C
    C   1.0     0.580962     0.689578     0.169833  Biso 1.000000     C
    C   1.0     0.938713     0.005235     0.036115  Biso 1.000000     C
    C   1.0     0.058722     0.454791     0.476125  Biso 1.000000     C
    C   1.0     0.262803     0.341876     0.461211  Biso 1.000000     C
    C   1.0     0.724242     0.106732     0.105864  Biso 1.000000     C
    C   1.0     0.609104     0.586708     0.124945  Biso 1.000000     C
    C   1.0     0.837115     0.100048     0.035770  Biso 1.000000     C
    C   1.0     0.609553     0.585529     0.024306  Biso 1.000000     C
    C   1.0     0.569753     0.875226     0.149495  Biso 1.000000     C
    C   1.0     0.917682     0.920547     0.108977  Biso 1.000000     C
    C   1.0     0.229392     0.992925     0.508330  Biso 1.000000     C
    C   1.0     0.540424     0.700788     0.279279  Biso 1.000000     C
    C   1.0     0.801866     0.934040     0.176747  Biso 1.000000     C
    C   1.0     0.058790     0.003860     0.480424  Biso 1.000000     C
    C   1.0     0.518334     0.797759     0.317717  Biso 1.000000     C
    C   1.0     0.638353     0.485245     0.180345  Biso 1.000000     C
    C   1.0     0.594985     0.780745     0.104646  Biso 1.000000     C
    C   1.0     0.121398     0.981163     0.546701  Biso 1.000000     C
    C   1.0     0.667711     0.389905     0.134047  Biso 1.000000     C
    C   1.0     0.079942     0.389868     0.398091  Biso 1.000000     C
    C   1.0     0.640633     0.485747     0.984626  Biso 1.000000     C
    C   1.0     0.190415     0.304545     0.356826  Biso 1.000000     C
    C   1.0     0.222959     0.042873     0.342180  Biso 1.000000     C
    C   1.0     0.114489     0.033502     0.374649  Biso 1.000000     C
    C   1.0     0.844634     0.570451     0.494538  Biso 1.000000     C
    C   1.0     0.419039     0.310386     0.830134  Biso 1.000000     C
    C   1.0     0.061334     0.994712     0.963925  Biso 1.000000     C
    C   1.0     0.941371     0.545276     0.523841  Biso 1.000000     C
    C   1.0     0.737153     0.657928     0.539026  Biso 1.000000     C
    C   1.0     0.275804     0.893210     0.894164  Biso 1.000000     C
    C   1.0     0.390878     0.413255     0.875035  Biso 1.000000     C
    C   1.0     0.162932     0.899894     0.964261  Biso 1.000000     C
    C   1.0     0.390479     0.414414     0.975658  Biso 1.000000     C
    C   1.0     0.430247     0.124738     0.850474  Biso 1.000000     C
    C   1.0     0.082364     0.079405     0.891070  Biso 1.000000     C
    C   1.0     0.770821     0.006711     0.491504  Biso 1.000000     C
    C   1.0     0.459539     0.299187     0.720691  Biso 1.000000     C
    C   1.0     0.198178     0.065910     0.823295  Biso 1.000000     C
    C   1.0     0.941187     0.996212     0.519514  Biso 1.000000     C
    C   1.0     0.481630     0.202216     0.682252  Biso 1.000000     C
    C   1.0     0.361601     0.514727     0.819656  Biso 1.000000     C
    C   1.0     0.405022     0.219216     0.895321  Biso 1.000000     C
    C   1.0     0.878831     0.018442     0.453118  Biso 1.000000     C
    C   1.0     0.332230     0.610061     0.865972  Biso 1.000000     C
    C   1.0     0.920305     0.610495     0.601557  Biso 1.000000     C
    C   1.0     0.359383     0.514191     0.015358  Biso 1.000000     C
    C   1.0     0.809808     0.695777     0.642860  Biso 1.000000     C
    C   1.0     0.776807     0.957589     0.657853  Biso 1.000000     C
    C   1.0     0.885244     0.967025     0.625394  Biso 1.000000     C
    N   1.0     0.704999     0.025938     0.177034  Biso 1.000000     N
    N   1.0     0.532583     0.885051     0.254508  Biso 1.000000     N
    N   1.0     0.281170     0.278097     0.388455  Biso 1.000000     N
    N   1.0     0.279867     0.025806     0.407855  Biso 1.000000     N
    N   1.0     0.670655     0.387946     0.036804  Biso 1.000000     N
    N   1.0     0.295045     0.974006     0.822996  Biso 1.000000     N
    N   1.0     0.467399     0.114918     0.745462  Biso 1.000000     N
    N   1.0     0.718913     0.721954     0.611505  Biso 1.000000     N
    N   1.0     0.720121     0.974241     0.592089  Biso 1.000000     N
    N   1.0     0.329359     0.611999     0.963190  Biso 1.000000     N
   Cl   1.0     0.631302     0.898354     0.430451  Biso 1.000000    Cl
   Cl   1.0     0.428522     0.155585     0.156176  Biso 1.000000    Cl
   Cl   1.0     0.576932     0.210422     0.361707  Biso 1.000000    Cl
   Cl   1.0     0.368622     0.101465     0.569559  Biso 1.000000    Cl
   Cl   1.0     0.571609     0.844388     0.843759  Biso 1.000000    Cl
   Cl   1.0     0.423106     0.789426     0.638418  Biso 1.000000    Cl
   La   1.0     0.480507     0.079068     0.338083  Biso 1.000000    La
   La   1.0     0.519513     0.920876     0.661918  Biso 1.000000    La
