#======================================================================

# CRYSTAL DATA

#----------------------------------------------------------------------

data_VESTA_phase_1


_pd_phase_name                         MOF
_cell_length_a                         13.95800
_cell_length_b                         14.28300
_cell_length_c                         14.29200
_cell_angle_alpha                      84.95300
_cell_angle_beta                       106.52300
_cell_angle_gamma                      72.92200
_symmetry_space_group_name_H-M         "P 1"
_symmetry_Int_Tables_number            1

loop_
_symmetry_equiv_pos_as_xyz
   "x, y, z"

loop_
   _atom_site_label
   _atom_site_occupancy
   _atom_site_fract_x
   _atom_site_fract_y
   _atom_site_fract_z
   _atom_site_adp_type
   _atom_site_B_iso_or_equiv
   _atom_site_type_symbol
    H   1.0     0.547233     0.688407     0.089881  Biso 1.000000     H
    H   1.0     0.516065     0.516121     0.085266  Biso 1.000000     H
    H   1.0     0.965823     0.776969     0.159974  Biso 1.000000     H
    H   1.0     0.927125     0.608307     0.141833  Biso 1.000000     H
    H   1.0     0.216036     0.186397     0.289929  Biso 1.000000     H
    H   1.0     0.044521     0.169699     0.297131  Biso 1.000000     H
    H   1.0    -0.015211     0.077620     0.026271  Biso 1.000000     H
    H   1.0     0.154680     0.084842     0.009106  Biso 1.000000     H
    H   1.0     0.951020     0.090262     0.685660  Biso 1.000000     H
    H   1.0     0.981630     0.085930     0.512939  Biso 1.000000     H
    H   1.0     0.533584     0.161372     0.779199  Biso 1.000000     H
    H   1.0     0.571309     0.144502     0.609749  Biso 1.000000     H
    H   1.0     0.280901     0.290156     0.187459  Biso 1.000000     H
    H   1.0     0.452435     0.297934     0.171117  Biso 1.000000     H
    H   1.0     0.515803     0.027274     0.077116  Biso 1.000000     H
    H   1.0     0.346008     0.009589     0.083924  Biso 1.000000     H
    H   1.0     0.452767     0.311582     0.910125  Biso 1.000000     H
    H   1.0     0.483938     0.483866     0.914739  Biso 1.000000     H
    H   1.0     0.034175     0.223023     0.840028  Biso 1.000000     H
    H   1.0     0.072872     0.391686     0.858168  Biso 1.000000     H
    H   1.0     0.783955     0.813613     0.710066  Biso 1.000000     H
    H   1.0     0.955475     0.830301     0.702868  Biso 1.000000     H
    H   1.0     0.000000     0.922361     0.973738  Biso 1.000000     H
    H   1.0     0.845322     0.915148     0.990899  Biso 1.000000     H
    H   1.0     0.048980     0.909729     0.314344  Biso 1.000000     H
    H   1.0     0.018370     0.914062     0.487066  Biso 1.000000     H
    H   1.0     0.466416     0.838618     0.220805  Biso 1.000000     H
    H   1.0     0.428690     0.855493     0.390254  Biso 1.000000     H
    H   1.0     0.719098     0.709841     0.812539  Biso 1.000000     H
    H   1.0     0.547563     0.702062     0.828878  Biso 1.000000     H
    H   1.0     0.484201     0.972713     0.922896  Biso 1.000000     H
    H   1.0     0.653997     0.990399     0.916092  Biso 1.000000     H
    C   1.0     0.791738     0.949793     0.157761  Biso 1.000000     C
    C   1.0     0.702058     0.337782     0.128060  Biso 1.000000     C
    C   1.0     0.686308     0.445014     0.124198  Biso 1.000000     C
    C   1.0     0.717786     0.607720     0.130431  Biso 1.000000     C
    C   1.0     0.803651     0.843913     0.157223  Biso 1.000000     C
    C   1.0     0.610934     0.617195     0.106398  Biso 1.000000     C
    C   1.0     0.593625     0.524921     0.103207  Biso 1.000000     C
    C   1.0     0.766128     0.684416     0.140621  Biso 1.000000     C
    C   1.0     0.890545     0.766815     0.155711  Biso 1.000000     C
    C   1.0     0.869581     0.676911     0.146147  Biso 1.000000     C
    C   1.0     0.167019     0.162310     0.229486  Biso 1.000000     C
    C   1.0     0.072187     0.152994     0.234480  Biso 1.000000     C
    C   1.0     0.039683     0.099461     0.083581  Biso 1.000000     C
    C   1.0     0.134303     0.104693     0.074401  Biso 1.000000     C
    C   1.0     0.199584     0.138418     0.147675  Biso 1.000000     C
    C   1.0     0.708447     0.156726     0.950371  Biso 1.000000     C
    C   1.0     0.795380     0.129784     0.336591  Biso 1.000000     C
    C   1.0     0.811391     0.125680     0.443702  Biso 1.000000     C
    C   1.0     0.780455     0.131619     0.606865  Biso 1.000000     C
    C   1.0     0.695914     0.157029     0.844481  Biso 1.000000     C
    C   1.0     0.887202     0.107137     0.615128  Biso 1.000000     C
    C   1.0     0.904196     0.104106     0.522615  Biso 1.000000     C
    C   1.0     0.732498     0.141628     0.684211  Biso 1.000000     C
    C   1.0     0.608714     0.156727     0.768213  Biso 1.000000     C
    C   1.0     0.629154     0.147843     0.677864  Biso 1.000000     C
    C   1.0     0.330738     0.229874     0.162991  Biso 1.000000     C
    C   1.0     0.425574     0.235194     0.153880  Biso 1.000000     C
    C   1.0     0.460104     0.084426     0.099265  Biso 1.000000     C
    C   1.0     0.365559     0.074940     0.104269  Biso 1.000000     C
    C   1.0     0.299225     0.147980     0.138412  Biso 1.000000     C
    C   1.0     0.208263     0.050199     0.842245  Biso 1.000000     C
    C   1.0     0.297945     0.662209     0.871943  Biso 1.000000     C
    C   1.0     0.313695     0.554977     0.875807  Biso 1.000000     C
    C   1.0     0.282214     0.392271     0.869576  Biso 1.000000     C
    C   1.0     0.196348     0.156079     0.842783  Biso 1.000000     C
    C   1.0     0.389067     0.382795     0.893608  Biso 1.000000     C
    C   1.0     0.406377     0.475068     0.896799  Biso 1.000000     C
    C   1.0     0.233871     0.315576     0.859385  Biso 1.000000     C
    C   1.0     0.109453     0.233177     0.844292  Biso 1.000000     C
    C   1.0     0.130417     0.323081     0.853857  Biso 1.000000     C
    C   1.0     0.832979     0.837688     0.770515  Biso 1.000000     C
    C   1.0     0.927812     0.847002     0.765522  Biso 1.000000     C
    C   1.0     0.960322     0.900524     0.916426  Biso 1.000000     C
    C   1.0     0.865699     0.895296     0.925605  Biso 1.000000     C
    C   1.0     0.800415     0.861577     0.852328  Biso 1.000000     C
    C   1.0     0.291554     0.843262     0.049634  Biso 1.000000     C
    C   1.0     0.204621     0.870212     0.663412  Biso 1.000000     C
    C   1.0     0.188609     0.874317     0.556301  Biso 1.000000     C
    C   1.0     0.219544     0.868375     0.393138  Biso 1.000000     C
    C   1.0     0.304087     0.842959     0.155524  Biso 1.000000     C
    C   1.0     0.112797     0.892856     0.384876  Biso 1.000000     C
    C   1.0     0.095804     0.895888     0.477389  Biso 1.000000     C
    C   1.0     0.267502     0.858364     0.315793  Biso 1.000000     C
    C   1.0     0.391286     0.843264     0.231791  Biso 1.000000     C
    C   1.0     0.370845     0.852150     0.322140  Biso 1.000000     C
    C   1.0     0.669259     0.770123     0.837005  Biso 1.000000     C
    C   1.0     0.574425     0.764801     0.846118  Biso 1.000000     C
    C   1.0     0.539898     0.915564     0.900741  Biso 1.000000     C
    C   1.0     0.634443     0.925051     0.895738  Biso 1.000000     C
    C   1.0     0.700774     0.852015     0.861591  Biso 1.000000     C
    N   1.0     0.008514     0.123193     0.161983  Biso 1.000000     N
    N   1.0     0.490243     0.162914     0.123636  Biso 1.000000     N
    N   1.0     0.991483     0.876806     0.838017  Biso 1.000000     N
    N   1.0     0.509762     0.837074     0.876376  Biso 1.000000     N
    O   1.0     0.872026     0.976567     0.160829  Biso 1.000000     O
    O   1.0     0.619654     0.311488     0.106757  Biso 1.000000     O
    O   1.0     0.699840     0.006980     0.152178  Biso 1.000000     O
    O   1.0     0.798040     0.280136     0.152500  Biso 1.000000     O
    O   1.0     0.628336     0.160563     0.978175  Biso 1.000000     O
    O   1.0     0.877760     0.107196     0.309559  Biso 1.000000     O
    O   1.0     0.800651     0.149677     0.006535  Biso 1.000000     O
    O   1.0     0.699346     0.155689     0.279812  Biso 1.000000     O
    O   1.0     0.127977     0.023423     0.839175  Biso 1.000000     O
    O   1.0     0.380346     0.688506     0.893243  Biso 1.000000     O
    O   1.0     0.300163     0.993014     0.847831  Biso 1.000000     O
    O   1.0     0.201962     0.719853     0.847504  Biso 1.000000     O
    O   1.0     0.371666     0.839423     0.021831  Biso 1.000000     O
    O   1.0     0.122242     0.892792     0.690446  Biso 1.000000     O
    O   1.0     0.199350     0.850313     0.993470  Biso 1.000000     O
    O   1.0     0.300655     0.844313     0.720190  Biso 1.000000     O
    S   1.0     0.695883     0.804223     0.148760  Biso 1.000000     S
    S   1.0     0.796085     0.483560     0.149136  Biso 1.000000     S
    S   1.0     0.803308     0.148254     0.803496  Biso 1.000000     S
    S   1.0     0.701885     0.151029     0.483523  Biso 1.000000     S
    S   1.0     0.304117     0.195768     0.851249  Biso 1.000000     S
    S   1.0     0.203917     0.516431     0.850870  Biso 1.000000     S
    S   1.0     0.196693     0.851736     0.196508  Biso 1.000000     S
    S   1.0     0.298115     0.848968     0.516480  Biso 1.000000     S
   Zn   1.0     0.859334     0.127233     0.160774  Biso 1.000000    Zn
   Zn   1.0     0.639262     0.161978     0.127655  Biso 1.000000    Zn
   Zn   1.0     0.140669     0.872755     0.839230  Biso 1.000000    Zn
   Zn   1.0     0.360739     0.838019     0.872349  Biso 1.000000    Zn
