#======================================================================

# CRYSTAL DATA

#----------------------------------------------------------------------

data_VESTA_phase_1


_pd_phase_name                         MOF
_cell_length_a                         19.59200
_cell_length_b                         14.26300
_cell_length_c                         14.27000
_cell_angle_alpha                      102.88900
_cell_angle_beta                       103.38200
_cell_angle_gamma                      103.15100
_symmetry_space_group_name_H-M         "P 1"
_symmetry_Int_Tables_number            1

loop_
_symmetry_equiv_pos_as_xyz
   "x, y, z"

loop_
   _atom_site_label
   _atom_site_occupancy
   _atom_site_fract_x
   _atom_site_fract_y
   _atom_site_fract_z
   _atom_site_adp_type
   _atom_site_B_iso_or_equiv
   _atom_site_type_symbol
    H   1.0     0.237536     0.643277     0.740375  Biso 1.000000     H
    H   1.0     0.737537     0.643263     0.740344  Biso 1.000000     H
    H   1.0     0.489327     0.810438     0.935559  Biso 1.000000     H
    H   1.0     0.989338     0.810416     0.935556  Biso 1.000000     H
    H   1.0     0.217254     0.450041     0.726791  Biso 1.000000     H
    H   1.0     0.717250     0.450030     0.726774  Biso 1.000000     H
    H   1.0     0.016740     0.996412     0.923570  Biso 1.000000     H
    H   1.0     0.516739     0.996435     0.923565  Biso 1.000000     H
    H   1.0     0.163849     0.594274     0.981589  Biso 1.000000     H
    H   1.0     0.663834     0.594306     0.982292  Biso 1.000000     H
    H   1.0     0.230295     0.322171     0.964967  Biso 1.000000     H
    H   1.0     0.730333     0.322107     0.963975  Biso 1.000000     H
    H   1.0     0.036081     0.486515     0.912421  Biso 1.000000     H
    H   1.0     0.536076     0.486554     0.913016  Biso 1.000000     H
    H   1.0     0.098935     0.226777     0.899797  Biso 1.000000     H
    H   1.0     0.598971     0.226726     0.899047  Biso 1.000000     H
    H   1.0     0.012265     0.258607     0.353827  Biso 1.000000     H
    H   1.0     0.512267     0.258609     0.353807  Biso 1.000000     H
    H   1.0     0.259774     0.066325     0.186654  Biso 1.000000     H
    H   1.0     0.759780     0.066338     0.186680  Biso 1.000000     H
    H   1.0     0.033042     0.270327     0.546746  Biso 1.000000     H
    H   1.0     0.533049     0.270328     0.546727  Biso 1.000000     H
    H   1.0     0.233013     0.077045     0.000195  Biso 1.000000     H
    H   1.0     0.733013     0.077053     0.000220  Biso 1.000000     H
    H   1.0     0.084607     0.016056     0.403769  Biso 1.000000     H
    H   1.0     0.584609     0.016265     0.403779  Biso 1.000000     H
    H   1.0     0.021631     0.037309     0.678321  Biso 1.000000     H
    H   1.0     0.521642     0.037026     0.678302  Biso 1.000000     H
    H   1.0     0.213029     0.083904     0.509529  Biso 1.000000     H
    H   1.0     0.713032     0.084073     0.509543  Biso 1.000000     H
    H   1.0     0.153574     0.100538     0.771701  Biso 1.000000     H
    H   1.0     0.653586     0.100285     0.771684  Biso 1.000000     H
    H   1.0     0.262519     0.356723     0.259689  Biso 1.000000     H
    H   1.0     0.762520     0.356722     0.259655  Biso 1.000000     H
    H   1.0     0.010716     0.189559     0.064465  Biso 1.000000     H
    H   1.0     0.510723     0.189552     0.064463  Biso 1.000000     H
    H   1.0     0.282817     0.549945     0.273202  Biso 1.000000     H
    H   1.0     0.782812     0.549949     0.273186  Biso 1.000000     H
    H   1.0     0.483329     0.003560     0.076473  Biso 1.000000     H
    H   1.0     0.983336     0.003566     0.076467  Biso 1.000000     H
    H   1.0     0.336263     0.405686     0.016899  Biso 1.000000     H
    H   1.0     0.836251     0.405711     0.017569  Biso 1.000000     H
    H   1.0     0.269708     0.677981     0.037083  Biso 1.000000     H
    H   1.0     0.769747     0.677927     0.036147  Biso 1.000000     H
    H   1.0     0.464013     0.513425     0.086275  Biso 1.000000     H
    H   1.0     0.964009     0.513457     0.086843  Biso 1.000000     H
    H   1.0     0.401074     0.773349     0.101743  Biso 1.000000     H
    H   1.0     0.901110     0.773304     0.101057  Biso 1.000000     H
    H   1.0     0.487783     0.741467     0.646165  Biso 1.000000     H
    H   1.0     0.987787     0.741481     0.646151  Biso 1.000000     H
    H   1.0     0.240265     0.933703     0.813303  Biso 1.000000     H
    H   1.0     0.740273     0.933714     0.813319  Biso 1.000000     H
    H   1.0     0.467013     0.729716     0.453240  Biso 1.000000     H
    H   1.0     0.967024     0.729720     0.453225  Biso 1.000000     H
    H   1.0     0.267032     0.922985     0.999762  Biso 1.000000     H
    H   1.0     0.767035     0.922996     0.999778  Biso 1.000000     H
    H   1.0     0.415459     0.983320     0.596180  Biso 1.000000     H
    H   1.0     0.915474     0.983236     0.596180  Biso 1.000000     H
    H   1.0     0.478401     0.963608     0.321719  Biso 1.000000     H
    H   1.0     0.978405     0.963718     0.321727  Biso 1.000000     H
    H   1.0     0.287033     0.915522     0.490403  Biso 1.000000     H
    H   1.0     0.787044     0.915455     0.490404  Biso 1.000000     H
    H   1.0     0.346459     0.900180     0.228327  Biso 1.000000     H
    H   1.0     0.846465     0.900233     0.228333  Biso 1.000000     H
    C   1.0     0.387932     0.771892     0.812770  Biso 1.000000     C
    C   1.0     0.887934     0.771882     0.812784  Biso 1.000000     C
    C   1.0     0.335496     0.483864     0.784119  Biso 1.000000     C
    C   1.0     0.835489     0.483855     0.784148  Biso 1.000000     C
    C   1.0     0.347606     0.385896     0.786725  Biso 1.000000     C
    C   1.0     0.847600     0.385885     0.786748  Biso 1.000000     C
    C   1.0     0.281560     0.609665     0.759729  Biso 1.000000     C
    C   1.0     0.781560     0.609654     0.759721  Biso 1.000000     C
    C   1.0     0.404653     0.045152     0.789084  Biso 1.000000     C
    C   1.0     0.904667     0.045149     0.789109  Biso 1.000000     C
    C   1.0     0.454209     0.835245     0.881283  Biso 1.000000     C
    C   1.0     0.954216     0.835228     0.881290  Biso 1.000000     C
    C   1.0     0.270489     0.506806     0.752964  Biso 1.000000     C
    C   1.0     0.770484     0.506796     0.752965  Biso 1.000000     C
    C   1.0     0.210899     0.469125     0.979944  Biso 1.000000     C
    C   1.0     0.710914     0.469115     0.979808  Biso 1.000000     C
    C   1.0     0.413430     0.949264     0.804922  Biso 1.000000     C
    C   1.0     0.913440     0.949257     0.804943  Biso 1.000000     C
    C   1.0     0.355443     0.665680     0.796512  Biso 1.000000     C
    C   1.0     0.855441     0.665670     0.796525  Biso 1.000000     C
    C   1.0     0.468753     0.934926     0.875630  Biso 1.000000     C
    C   1.0     0.968764     0.934911     0.875640  Biso 1.000000     C
    C   1.0     0.153618     0.513262     0.964105  Biso 1.000000     C
    C   1.0     0.653620     0.513277     0.964416  Biso 1.000000     C
    C   1.0     0.190091     0.363472     0.955819  Biso 1.000000     C
    C   1.0     0.690120     0.363436     0.955274  Biso 1.000000     C
    C   1.0     0.081070     0.453560     0.925887  Biso 1.000000     C
    C   1.0     0.581071     0.453574     0.926182  Biso 1.000000     C
    C   1.0     0.116320     0.308599     0.918443  Biso 1.000000     C
    C   1.0     0.616347     0.308567     0.917971  Biso 1.000000     C
    C   1.0     0.361707     0.187714     0.225254  Biso 1.000000     C
    C   1.0     0.861720     0.187711     0.225269  Biso 1.000000     C
    C   1.0     0.414818     0.213988     0.512930  Biso 1.000000     C
    C   1.0     0.914827     0.213988     0.512945  Biso 1.000000     C
    C   1.0     0.402925     0.210045     0.610598  Biso 1.000000     C
    C   1.0     0.902931     0.210048     0.610611  Biso 1.000000     C
    C   1.0     0.468362     0.239337     0.387382  Biso 1.000000     C
    C   1.0     0.968375     0.239337     0.387400  Biso 1.000000     C
    C   1.0     0.345883     0.208784     0.951240  Biso 1.000000     C
    C   1.0     0.845888     0.208770     0.951248  Biso 1.000000     C
    C   1.0     0.295193     0.119889     0.161788  Biso 1.000000     C
    C   1.0     0.795202     0.119894     0.161808  Biso 1.000000     C
    C   1.0     0.479705     0.245089     0.490069  Biso 1.000000     C
    C   1.0     0.979715     0.245090     0.490087  Biso 1.000000     C
    C   1.0     0.039299     0.019930     0.530341  Biso 1.000000     C
    C   1.0     0.539306     0.019918     0.530339  Biso 1.000000     C
    C   1.0     0.336687     0.194542     0.047472  Biso 1.000000     C
    C   1.0     0.836697     0.194529     0.047483  Biso 1.000000     C
    C   1.0     0.394377     0.203475     0.331444  Biso 1.000000     C
    C   1.0     0.894390     0.203476     0.331459  Biso 1.000000     C
    C   1.0     0.280977     0.124897     0.061871  Biso 1.000000     C
    C   1.0     0.780983     0.124898     0.061890  Biso 1.000000     C
    C   1.0     0.095760     0.034351     0.484942  Biso 1.000000     C
    C   1.0     0.595765     0.034434     0.484947  Biso 1.000000     C
    C   1.0     0.061180     0.044948     0.636098  Biso 1.000000     C
    C   1.0     0.561189     0.044777     0.636087  Biso 1.000000     C
    C   1.0     0.168670     0.071688     0.543532  Biso 1.000000     C
    C   1.0     0.668674     0.071785     0.543540  Biso 1.000000     C
    C   1.0     0.135238     0.081293     0.689822  Biso 1.000000     C
    C   1.0     0.635247     0.081154     0.689813  Biso 1.000000     C
    C   1.0     0.112124     0.228113     0.187238  Biso 1.000000     C
    C   1.0     0.612126     0.228115     0.187243  Biso 1.000000     C
    C   1.0     0.164580     0.516120     0.215788  Biso 1.000000     C
    C   1.0     0.664573     0.516126     0.215818  Biso 1.000000     C
    C   1.0     0.152481     0.614096     0.213195  Biso 1.000000     C
    C   1.0     0.652472     0.614097     0.213208  Biso 1.000000     C
    C   1.0     0.218500     0.390331     0.240282  Biso 1.000000     C
    C   1.0     0.718499     0.390332     0.240270  Biso 1.000000     C
    C   1.0     0.095410     0.954856     0.210930  Biso 1.000000     C
    C   1.0     0.595421     0.954863     0.210945  Biso 1.000000     C
    C   1.0     0.045844     0.164757     0.118735  Biso 1.000000     C
    C   1.0     0.545848     0.164754     0.118740  Biso 1.000000     C
    C   1.0     0.229582     0.493181     0.247006  Biso 1.000000     C
    C   1.0     0.729577     0.493185     0.247005  Biso 1.000000     C
    C   1.0     0.289154     0.530920     0.020302  Biso 1.000000     C
    C   1.0     0.789169     0.530911     0.020184  Biso 1.000000     C
    C   1.0     0.086633     0.050749     0.195103  Biso 1.000000     C
    C   1.0     0.586640     0.050752     0.195115  Biso 1.000000     C
    C   1.0     0.144617     0.334320     0.203473  Biso 1.000000     C
    C   1.0     0.644616     0.334322     0.203478  Biso 1.000000     C
    C   1.0     0.031305     0.065079     0.124396  Biso 1.000000     C
    C   1.0     0.531312     0.065077     0.124404  Biso 1.000000     C
    C   1.0     0.346461     0.486731     0.035217  Biso 1.000000     C
    C   1.0     0.846464     0.486742     0.035508  Biso 1.000000     C
    C   1.0     0.309933     0.636625     0.045300  Biso 1.000000     C
    C   1.0     0.809962     0.636593     0.044783  Biso 1.000000     C
    C   1.0     0.419011     0.546433     0.073442  Biso 1.000000     C
    C   1.0     0.919013     0.546444     0.073738  Biso 1.000000     C
    C   1.0     0.383708     0.691488     0.082502  Biso 1.000000     C
    C   1.0     0.883736     0.691460     0.082080  Biso 1.000000     C
    C   1.0     0.138330     0.812323     0.774711  Biso 1.000000     C
    C   1.0     0.638342     0.812325     0.774721  Biso 1.000000     C
    C   1.0     0.085243     0.785992     0.487027  Biso 1.000000     C
    C   1.0     0.585247     0.786006     0.487039  Biso 1.000000     C
    C   1.0     0.097143     0.789918     0.389362  Biso 1.000000     C
    C   1.0     0.597143     0.789939     0.389373  Biso 1.000000     C
    C   1.0     0.031682     0.760712     0.612576  Biso 1.000000     C
    C   1.0     0.531691     0.760709     0.612589  Biso 1.000000     C
    C   1.0     0.154154     0.791253     0.048723  Biso 1.000000     C
    C   1.0     0.654162     0.791250     0.048731  Biso 1.000000     C
    C   1.0     0.204845     0.880144     0.838174  Biso 1.000000     C
    C   1.0     0.704854     0.880151     0.838187  Biso 1.000000     C
    C   1.0     0.020349     0.754937     0.509886  Biso 1.000000     C
    C   1.0     0.520355     0.754940     0.509900  Biso 1.000000     C
    C   1.0     0.460749     0.980181     0.469649  Biso 1.000000     C
    C   1.0     0.960757     0.980217     0.469653  Biso 1.000000     C
    C   1.0     0.163348     0.805508     0.952497  Biso 1.000000     C
    C   1.0     0.663358     0.805504     0.952504  Biso 1.000000     C
    C   1.0     0.105665     0.796548     0.668518  Biso 1.000000     C
    C   1.0     0.605675     0.796553     0.668529  Biso 1.000000     C
    C   1.0     0.219062     0.875142     0.938092  Biso 1.000000     C
    C   1.0     0.719069     0.875146     0.938105  Biso 1.000000     C
    C   1.0     0.404296     0.965386     0.515023  Biso 1.000000     C
    C   1.0     0.904307     0.965341     0.515024  Biso 1.000000     C
    C   1.0     0.438858     0.955576     0.363916  Biso 1.000000     C
    C   1.0     0.938864     0.955622     0.363921  Biso 1.000000     C
    C   1.0     0.331388     0.928012     0.456426  Biso 1.000000     C
    C   1.0     0.831398     0.927991     0.456430  Biso 1.000000     C
    C   1.0     0.364803     0.919133     0.310186  Biso 1.000000     C
    C   1.0     0.864809     0.919186     0.310192  Biso 1.000000     C
    N   1.0     0.061948     0.352164     0.902915  Biso 1.000000     N
    N   1.0     0.561960     0.352158     0.902867  Biso 1.000000     N
    N   1.0     0.188824     0.095202     0.645004  Biso 1.000000     N
    N   1.0     0.688831     0.095153     0.645003  Biso 1.000000     N
    N   1.0     0.438109     0.647870     0.097163  Biso 1.000000     N
    N   1.0     0.938123     0.647863     0.097116  Biso 1.000000     N
    N   1.0     0.311225     0.904859     0.354976  Biso 1.000000     N
    N   1.0     0.811235     0.904837     0.354980  Biso 1.000000     N
    O   1.0     0.458838     0.124106     0.836246  Biso 1.000000     O
    O   1.0     0.958858     0.124099     0.836257  Biso 1.000000     O
    O   1.0     0.414870     0.386788     0.814873  Biso 1.000000     O
    O   1.0     0.914864     0.386775     0.814876  Biso 1.000000     O
    O   1.0     0.291615     0.309570     0.760974  Biso 1.000000     O
    O   1.0     0.791610     0.309556     0.760985  Biso 1.000000     O
    O   1.0     0.343114     0.041316     0.730715  Biso 1.000000     O
    O   1.0     0.843125     0.041317     0.730751  Biso 1.000000     O
    O   1.0     0.291944     0.160742     0.872100  Biso 1.000000     O
    O   1.0     0.791939     0.160745     0.872113  Biso 1.000000     O
    O   1.0     0.335704     0.181289     0.609364  Biso 1.000000     O
    O   1.0     0.835709     0.181285     0.609374  Biso 1.000000     O
    O   1.0     0.458998     0.235200     0.686984  Biso 1.000000     O
    O   1.0     0.959003     0.235200     0.686999  Biso 1.000000     O
    O   1.0     0.407481     0.266578     0.955054  Biso 1.000000     O
    O   1.0     0.907490     0.266544     0.955055  Biso 1.000000     O
    O   1.0     0.041220     0.875913     0.163759  Biso 1.000000     O
    O   1.0     0.541233     0.875915     0.163773  Biso 1.000000     O
    O   1.0     0.085225     0.613232     0.185075  Biso 1.000000     O
    O   1.0     0.585214     0.613227     0.185079  Biso 1.000000     O
    O   1.0     0.208484     0.690415     0.238971  Biso 1.000000     O
    O   1.0     0.708473     0.690419     0.238989  Biso 1.000000     O
    O   1.0     0.156946     0.958678     0.269294  Biso 1.000000     O
    O   1.0     0.656958     0.958690     0.269311  Biso 1.000000     O
    O   1.0     0.208104     0.839264     0.127865  Biso 1.000000     O
    O   1.0     0.708105     0.839277     0.127874  Biso 1.000000     O
    O   1.0     0.164367     0.818666     0.390597  Biso 1.000000     O
    O   1.0     0.664367     0.818675     0.390603  Biso 1.000000     O
    O   1.0     0.041074     0.764798     0.312978  Biso 1.000000     O
    O   1.0     0.541074     0.764807     0.312989  Biso 1.000000     O
    O   1.0     0.092553     0.733476     0.044908  Biso 1.000000     O
    O   1.0     0.592564     0.733457     0.044912  Biso 1.000000     O
    S   1.0     0.344357     0.837300     0.741536  Biso 1.000000     S
    S   1.0     0.844360     0.837299     0.741561  Biso 1.000000     S
    S   1.0     0.410669     0.589384     0.821603  Biso 1.000000     S
    S   1.0     0.910663     0.589377     0.821650  Biso 1.000000     S
    S   1.0     0.405721     0.257787     0.159704  Biso 1.000000     S
    S   1.0     0.905739     0.257768     0.159710  Biso 1.000000     S
    S   1.0     0.339415     0.177934     0.407584  Biso 1.000000     S
    S   1.0     0.839425     0.177935     0.407596  Biso 1.000000     S
    S   1.0     0.155703     0.162715     0.258479  Biso 1.000000     S
    S   1.0     0.655707     0.162722     0.258490  Biso 1.000000     S
    S   1.0     0.089401     0.410606     0.178298  Biso 1.000000     S
    S   1.0     0.589395     0.410612     0.178337  Biso 1.000000     S
    S   1.0     0.094308     0.742269     0.840267  Biso 1.000000     S
    S   1.0     0.594324     0.742259     0.840273  Biso 1.000000     S
    S   1.0     0.160640     0.822031     0.592379  Biso 1.000000     S
    S   1.0     0.660645     0.822051     0.592389  Biso 1.000000     S
   Zn   1.0     0.453113     0.267538     0.834778  Biso 1.000000    Zn
   Zn   1.0     0.953121     0.267533     0.834789  Biso 1.000000    Zn
   Zn   1.0     0.297822     0.161860     0.728569  Biso 1.000000    Zn
   Zn   1.0     0.797826     0.161843     0.728575  Biso 1.000000    Zn
   Zn   1.0     0.046956     0.732479     0.165192  Biso 1.000000    Zn
   Zn   1.0     0.546962     0.732479     0.165199  Biso 1.000000    Zn
   Zn   1.0     0.202238     0.838087     0.271389  Biso 1.000000    Zn
   Zn   1.0     0.702244     0.838099     0.271397  Biso 1.000000    Zn
