#======================================================================

# CRYSTAL DATA

#----------------------------------------------------------------------

data_VESTA_phase_1


_pd_phase_name                         MOF
_cell_length_a                         13.95900
_cell_length_b                         14.28200
_cell_length_c                         14.29400
_cell_angle_alpha                      97.17600
_cell_angle_beta                       106.29800
_cell_angle_gamma                      106.78100
_symmetry_space_group_name_H-M         "P 1"
_symmetry_Int_Tables_number            1

loop_
_symmetry_equiv_pos_as_xyz
   "x, y, z"

loop_
   _atom_site_label
   _atom_site_occupancy
   _atom_site_fract_x
   _atom_site_fract_y
   _atom_site_fract_z
   _atom_site_adp_type
   _atom_site_B_iso_or_equiv
   _atom_site_type_symbol
    H   1.0     0.650884     0.506556     0.410134  Biso 1.000000     H
    H   1.0     0.481670     0.017145     0.416469  Biso 1.000000     H
    H   1.0     0.481146     0.524913     0.417998  Biso 1.000000     H
    H   1.0     0.470933     0.679194     0.724656  Biso 1.000000     H
    H   1.0     0.434492     0.663769     0.894341  Biso 1.000000     H
    H   1.0     0.721000     0.790653     0.321228  Biso 1.000000     H
    H   1.0     0.449265     0.188016     0.406489  Biso 1.000000     H
    H   1.0     0.549475     0.798913     0.337790  Biso 1.000000     H
    H   1.0     0.847395     0.591366     0.494099  Biso 1.000000     H
    H   1.0     0.018902     0.584509     0.985500  Biso 1.000000     H
    H   1.0     0.017148     0.582954     0.476052  Biso 1.000000     H
    H   1.0     0.027672     0.272720     0.320613  Biso 1.000000     H
    H   1.0     0.065090     0.103782     0.337479  Biso 1.000000     H
    H   1.0     0.779885     0.677641     0.209510  Biso 1.000000     H
    H   1.0     0.050727     0.594065     0.814173  Biso 1.000000     H
    H   1.0     0.951351     0.660744     0.201643  Biso 1.000000     H
    H   1.0     0.349109     0.493450     0.589889  Biso 1.000000     H
    H   1.0     0.518319     0.982856     0.583544  Biso 1.000000     H
    H   1.0     0.518848     0.475093     0.582028  Biso 1.000000     H
    H   1.0     0.529060     0.320820     0.275362  Biso 1.000000     H
    H   1.0     0.565501     0.336245     0.105677  Biso 1.000000     H
    H   1.0     0.278980     0.209338     0.678766  Biso 1.000000     H
    H   1.0     0.550726     0.811985     0.593525  Biso 1.000000     H
    H   1.0     0.450508     0.201080     0.662209  Biso 1.000000     H
    H   1.0     0.152599     0.408643     0.505919  Biso 1.000000     H
    H   1.0     0.981088     0.415492     0.014515  Biso 1.000000     H
    H   1.0     0.982846     0.417054     0.523967  Biso 1.000000     H
    H   1.0     0.972319     0.727282     0.679398  Biso 1.000000     H
    H   1.0     0.934900     0.896220     0.662532  Biso 1.000000     H
    H   1.0     0.220104     0.322356     0.790502  Biso 1.000000     H
    H   1.0     0.949264     0.405938     0.185842  Biso 1.000000     H
    H   1.0     0.048636     0.339250     0.798370  Biso 1.000000     H
    C   1.0     0.305386     0.663230     0.657378  Biso 1.000000     C
    C   1.0     0.296322     0.837479     0.373799  Biso 1.000000     C
    C   1.0     0.699909     0.646710     0.362975  Biso 1.000000     C
    C   1.0     0.292607     0.660235     0.551084  Biso 1.000000     C
    C   1.0     0.278528     0.105983     0.364583  Biso 1.000000     C
    C   1.0     0.311239     0.944392     0.375808  Biso 1.000000     C
    C   1.0     0.269783     0.648785     0.817807  Biso 1.000000     C
    C   1.0     0.632237     0.572727     0.393200  Biso 1.000000     C
    C   1.0     0.403716     0.024897     0.396751  Biso 1.000000     C
    C   1.0     0.537827     0.582529     0.398606  Biso 1.000000     C
    C   1.0     0.394659     0.669971     0.734882  Biso 1.000000     C
    C   1.0     0.374826     0.661731     0.825319  Biso 1.000000     C
    C   1.0     0.669957     0.729729     0.342511  Biso 1.000000     C
    C   1.0     0.385709     0.116497     0.390756  Biso 1.000000     C
    C   1.0     0.575167     0.735268     0.351754  Biso 1.000000     C
    C   1.0     0.193233     0.341648     0.335693  Biso 1.000000     C
    C   1.0     0.204046     0.627182     0.163068  Biso 1.000000     C
    C   1.0     0.799668     0.637193     0.353644  Biso 1.000000     C
    C   1.0     0.205721     0.447977     0.337838  Biso 1.000000     C
    C   1.0     0.221445     0.636208     0.894464  Biso 1.000000     C
    C   1.0     0.189238     0.625265     0.056397  Biso 1.000000     C
    C   1.0     0.229776     0.182002     0.351601  Biso 1.000000     C
    C   1.0     0.866603     0.607572     0.427875  Biso 1.000000     C
    C   1.0     0.096692     0.604247     0.976864  Biso 1.000000     C
    C   1.0     0.961051     0.601942     0.418288  Biso 1.000000     C
    C   1.0     0.104152     0.263328     0.329749  Biso 1.000000     C
    C   1.0     0.124527     0.173326     0.338831  Biso 1.000000     C
    C   1.0     0.830326     0.656823     0.270587  Biso 1.000000     C
    C   1.0     0.114387     0.609993     0.885052  Biso 1.000000     C
    C   1.0     0.925099     0.647411     0.265281  Biso 1.000000     C
    C   1.0     0.694607     0.336779     0.342638  Biso 1.000000     C
    C   1.0     0.703668     0.162522     0.626215  Biso 1.000000     C
    C   1.0     0.300060     0.353269     0.637003  Biso 1.000000     C
    C   1.0     0.707382     0.339762     0.448930  Biso 1.000000     C
    C   1.0     0.721463     0.894019     0.635434  Biso 1.000000     C
    C   1.0     0.688751     0.055610     0.624208  Biso 1.000000     C
    C   1.0     0.730208     0.351221     0.182209  Biso 1.000000     C
    C   1.0     0.367766     0.427289     0.606845  Biso 1.000000     C
    C   1.0     0.596273     0.975104     0.603263  Biso 1.000000     C
    C   1.0     0.462159     0.417471     0.601406  Biso 1.000000     C
    C   1.0     0.605332     0.330036     0.265134  Biso 1.000000     C
    C   1.0     0.625166     0.338280     0.174698  Biso 1.000000     C
    C   1.0     0.330043     0.270279     0.657519  Biso 1.000000     C
    C   1.0     0.614281     0.883504     0.609258  Biso 1.000000     C
    C   1.0     0.424813     0.264723     0.648240  Biso 1.000000     C
    C   1.0     0.806757     0.658354     0.664318  Biso 1.000000     C
    C   1.0     0.795944     0.372822     0.836947  Biso 1.000000     C
    C   1.0     0.200342     0.362845     0.646391  Biso 1.000000     C
    C   1.0     0.794272     0.552026     0.662185  Biso 1.000000     C
    C   1.0     0.778545     0.363796     0.105552  Biso 1.000000     C
    C   1.0     0.810752     0.374736     0.943617  Biso 1.000000     C
    C   1.0     0.770215     0.818000     0.648415  Biso 1.000000     C
    C   1.0     0.133376     0.392406     0.572129  Biso 1.000000     C
    C   1.0     0.903298     0.395756     0.023151  Biso 1.000000     C
    C   1.0     0.038947     0.398073     0.581733  Biso 1.000000     C
    C   1.0     0.895840     0.736675     0.670269  Biso 1.000000     C
    C   1.0     0.875464     0.826676     0.661182  Biso 1.000000     C
    C   1.0     0.169646     0.343146     0.729413  Biso 1.000000     C
    C   1.0     0.885603     0.390010     0.114963  Biso 1.000000     C
    C   1.0     0.074895     0.352599     0.734739  Biso 1.000000     C
    N   1.0     0.509180     0.662167     0.378221  Biso 1.000000     N
    N   1.0     0.990347     0.621470     0.338572  Biso 1.000000     N
    N   1.0     0.490812     0.337836     0.621797  Biso 1.000000     N
    N   1.0     0.009641     0.378525     0.661440  Biso 1.000000     N
    O   1.0     0.379191     0.812224     0.394957  Biso 1.000000     O
    O   1.0     0.374123     0.667645     0.524625  Biso 1.000000     O
    O   1.0     0.200621     0.778980     0.350645  Biso 1.000000     O
    O   1.0     0.199292     0.647452     0.493357  Biso 1.000000     O
    O   1.0     0.120975     0.605479     0.188590  Biso 1.000000     O
    O   1.0     0.124138     0.473854     0.330470  Biso 1.000000     O
    O   1.0     0.299590     0.650509     0.220977  Biso 1.000000     O
    O   1.0     0.299112     0.506312     0.350022  Biso 1.000000     O
    O   1.0     0.620799     0.187777     0.605057  Biso 1.000000     O
    O   1.0     0.625870     0.332363     0.475392  Biso 1.000000     O
    O   1.0     0.799369     0.221022     0.649373  Biso 1.000000     O
    O   1.0     0.800698     0.352546     0.506657  Biso 1.000000     O
    O   1.0     0.879015     0.394523     0.811425  Biso 1.000000     O
    O   1.0     0.875851     0.526147     0.669541  Biso 1.000000     O
    O   1.0     0.700400     0.349492     0.779038  Biso 1.000000     O
    O   1.0     0.700879     0.493690     0.649993  Biso 1.000000     O
    S   1.0     0.200813     0.981609     0.347747  Biso 1.000000     S
    S   1.0     0.196644     0.648607     0.697330  Biso 1.000000     S
    S   1.0     0.299419     0.653361     0.018049  Biso 1.000000     S
    S   1.0     0.302457     0.303011     0.350592  Biso 1.000000     S
    S   1.0     0.799177     0.018393     0.652270  Biso 1.000000     S
    S   1.0     0.803346     0.351393     0.302684  Biso 1.000000     S
    S   1.0     0.700572     0.346644     0.981966  Biso 1.000000     S
    S   1.0     0.697535     0.696993     0.649429  Biso 1.000000     S
   Zn   1.0     0.360442     0.662385     0.374296  Biso 1.000000    Zn
   Zn   1.0     0.138864     0.625131     0.337843  Biso 1.000000    Zn
   Zn   1.0     0.639548     0.337616     0.625719  Biso 1.000000    Zn
   Zn   1.0     0.861125     0.374869     0.662171  Biso 1.000000    Zn
