#======================================================================

# CRYSTAL DATA

#----------------------------------------------------------------------

data_VESTA_phase_1


_pd_phase_name                         MOF
_cell_length_a                         13.06300
_cell_length_b                         13.03600
_cell_length_c                         17.83600
_cell_angle_alpha                      98.26700
_cell_angle_beta                       98.31800
_cell_angle_gamma                      118.29900
_symmetry_space_group_name_H-M         "P 1"
_symmetry_Int_Tables_number            1

loop_
_symmetry_equiv_pos_as_xyz
   "x, y, z"

loop_
   _atom_site_label
   _atom_site_occupancy
   _atom_site_fract_x
   _atom_site_fract_y
   _atom_site_fract_z
   _atom_site_adp_type
   _atom_site_B_iso_or_equiv
   _atom_site_type_symbol
    H   1.0     0.783743     0.953132     0.812458  Biso 1.000000     H
    H   1.0     0.019209     0.113393     0.811708  Biso 1.000000     H
    H   1.0     0.956075     0.237503     0.020895  Biso 1.000000     H
    H   1.0     0.577081     0.689325     0.068711  Biso 1.000000     H
    H   1.0     0.541709     0.870899     0.030100  Biso 1.000000     H
    H   1.0     0.846117     0.892502     0.959819  Biso 1.000000     H
    H   1.0     0.760213     0.058678     0.121335  Biso 1.000000     H
    H   1.0     0.755573     0.377231     0.105537  Biso 1.000000     H
    H   1.0     0.706738     0.244409     0.957497  Biso 1.000000     H
    H   1.0     0.671927     0.134964     0.830356  Biso 1.000000     H
    H   1.0     0.458940    -0.011306     0.719045  Biso 1.000000     H
    H   1.0     0.490373     0.797155     0.884461  Biso 1.000000     H
    H   1.0     0.185255     0.453355     0.261811  Biso 1.000000     H
    H   1.0     0.394901     0.658066     0.117678  Biso 1.000000     H
    H   1.0     0.272400     0.356578     0.671337  Biso 1.000000     H
    H   1.0     0.496941     0.587655     0.894753  Biso 1.000000     H
    H   1.0     0.046589     0.215912     0.687460  Biso 1.000000     H
    H   1.0     0.885873     0.980312     0.688378  Biso 1.000000     H
    H   1.0     0.762971     0.043646     0.478810  Biso 1.000000     H
    H   1.0     0.310024     0.423491     0.431036  Biso 1.000000     H
    H   1.0     0.128409     0.458406     0.469362  Biso 1.000000     H
    H   1.0     0.107861     0.154028     0.540257  Biso 1.000000     H
    H   1.0     0.940947     0.239275     0.378378  Biso 1.000000     H
    H   1.0     0.623161     0.243921     0.394409  Biso 1.000000     H
    H   1.0     0.756424     0.293598     0.542444  Biso 1.000000     H
    H   1.0     0.865557     0.328300     0.669418  Biso 1.000000     H
    H   1.0     0.012066     0.541250     0.780987  Biso 1.000000     H
    H   1.0     0.202848     0.509688     0.615451  Biso 1.000000     H
    H   1.0     0.547410     0.813785     0.237832  Biso 1.000000     H
    H   1.0     0.341503     0.605270     0.381961  Biso 1.000000     H
    H   1.0     0.643011     0.726731     0.828537  Biso 1.000000     H
    H   1.0     0.411743     0.502481     0.605122  Biso 1.000000     H
    H   1.0     0.216248     0.046880     0.187585  Biso 1.000000     H
    H   1.0     0.980782     0.886618     0.188335  Biso 1.000000     H
    H   1.0     0.043908     0.762528     0.979138  Biso 1.000000     H
    H   1.0     0.422907     0.310700     0.931330  Biso 1.000000     H
    H   1.0     0.458278     0.129125     0.969940  Biso 1.000000     H
    H   1.0     0.153868     0.107518     0.040219  Biso 1.000000     H
    H   1.0     0.239778     0.941348     0.878702  Biso 1.000000     H
    H   1.0     0.244407     0.622790     0.894495  Biso 1.000000     H
    H   1.0     0.293241     0.755607     0.042536  Biso 1.000000     H
    H   1.0     0.328068     0.865049     0.169674  Biso 1.000000     H
    H   1.0     0.541049     0.011285     0.280983  Biso 1.000000     H
    H   1.0     0.509609     0.202869     0.115581  Biso 1.000000     H
    H   1.0     0.814720     0.546683     0.738221  Biso 1.000000     H
    H   1.0     0.605099     0.341945     0.882353  Biso 1.000000     H
    H   1.0     0.727592     0.643443     0.328698  Biso 1.000000     H
    H   1.0     0.503043     0.412367     0.105284  Biso 1.000000     H
    H   1.0     0.953391     0.784117     0.312583  Biso 1.000000     H
    H   1.0     0.114106     0.019719     0.311666  Biso 1.000000     H
    H   1.0     0.237027     0.956374     0.521223  Biso 1.000000     H
    H   1.0     0.689972     0.576535     0.569005  Biso 1.000000     H
    H   1.0     0.871583     0.541619     0.530676  Biso 1.000000     H
    H   1.0     0.892126     0.845994     0.459780  Biso 1.000000     H
    H   1.0     0.059045     0.760752     0.621658  Biso 1.000000     H
    H   1.0     0.376827     0.756098     0.605626  Biso 1.000000     H
    H   1.0     0.243562     0.706419     0.457590  Biso 1.000000     H
    H   1.0     0.134428     0.671729     0.330614  Biso 1.000000     H
    H   1.0    -0.012071     0.458778     0.219046  Biso 1.000000     H
    H   1.0     0.797143     0.490333     0.384588  Biso 1.000000     H
    H   1.0     0.452601     0.186217     0.762199  Biso 1.000000     H
    H   1.0     0.658482     0.394758     0.618071  Biso 1.000000     H
    H   1.0     0.356975     0.273294     0.171503  Biso 1.000000     H
    H   1.0     0.588253     0.497543     0.394916  Biso 1.000000     H
    B   1.0     0.716824     0.022823     0.952466  Biso 1.000000     B
    B   1.0     0.977319     0.283180     0.547319  Biso 1.000000     B
    B   1.0     0.283162     0.977198     0.047571  Biso 1.000000     B
    B   1.0     0.022670     0.716843     0.452717  Biso 1.000000     B
    C   1.0     0.852486     0.034695     0.855197  Biso 1.000000     C
    C   1.0     0.968522     0.112587     0.854820  Biso 1.000000     C
    C   1.0     0.938239     0.181230     0.963805  Biso 1.000000     C
    C   1.0     0.627700     0.758878     0.040371  Biso 1.000000     C
    C   1.0     0.609642     0.848270     0.021425  Biso 1.000000     C
    C   1.0     0.768623     0.861345     0.984495  Biso 1.000000     C
    C   1.0     0.752356     0.127403     0.097798  Biso 1.000000     C
    C   1.0     0.749554     0.290965     0.087420  Biso 1.000000     C
    C   1.0     0.723328     0.224363     0.013255  Biso 1.000000     C
    C   1.0     0.601903     0.044106     0.826042  Biso 1.000000     C
    C   1.0     0.496996     0.970287     0.770104  Biso 1.000000     C
    C   1.0     0.509759     0.868714     0.854896  Biso 1.000000     C
    C   1.0     0.193078     0.450808     0.111580  Biso 1.000000     C
    C   1.0     0.263760     0.533901     0.257349  Biso 1.000000     C
    C   1.0     0.279892     0.548395     0.182805  Biso 1.000000     C
    C   1.0     0.382035     0.650137     0.176020  Biso 1.000000     C
    C   1.0     0.280500     0.386551     0.825286  Biso 1.000000     C
    C   1.0     0.372657     0.466585     0.786766  Biso 1.000000     C
    C   1.0     0.351832     0.440121     0.705186  Biso 1.000000     C
    C   1.0     0.478987     0.569648     0.831320  Biso 1.000000     C
    C   1.0     0.965080     0.147168     0.644707  Biso 1.000000     C
    C   1.0     0.886978     0.031043     0.645174  Biso 1.000000     C
    C   1.0     0.818939     0.061466     0.536007  Biso 1.000000     C
    C   1.0     0.240671     0.372725     0.459393  Biso 1.000000     C
    C   1.0     0.151266     0.390552     0.478189  Biso 1.000000     C
    C   1.0     0.138729     0.231579     0.515457  Biso 1.000000     C
    C   1.0     0.872484     0.247257     0.401972  Biso 1.000000     C
    C   1.0     0.709326     0.250065     0.412485  Biso 1.000000     C
    C   1.0     0.776140     0.276701     0.486619  Biso 1.000000     C
    C   1.0     0.956320     0.398313     0.673782  Biso 1.000000     C
    C   1.0     0.030295     0.503192     0.729849  Biso 1.000000     C
    C   1.0     0.131479     0.490354     0.645019  Biso 1.000000     C
    C   1.0     0.549660     0.806211     0.387996  Biso 1.000000     C
    C   1.0     0.466504     0.735682     0.242282  Biso 1.000000     C
    C   1.0     0.451865     0.719672     0.316822  Biso 1.000000     C
    C   1.0     0.349599     0.618062     0.323617  Biso 1.000000     C
    C   1.0     0.613144     0.718752     0.674570  Biso 1.000000     C
    C   1.0     0.532955     0.626633     0.713105  Biso 1.000000     C
    C   1.0     0.559394     0.647423     0.794686  Biso 1.000000     C
    C   1.0     0.429739     0.520418     0.668552  Biso 1.000000     C
    C   1.0     0.147504     0.965320     0.144844  Biso 1.000000     C
    C   1.0     0.031468     0.887427     0.145220  Biso 1.000000     C
    C   1.0     0.061746     0.818793     0.036231  Biso 1.000000     C
    C   1.0     0.372288     0.241145     0.959669  Biso 1.000000     C
    C   1.0     0.390345     0.151754     0.978614  Biso 1.000000     C
    C   1.0     0.231364     0.138677     0.015544  Biso 1.000000     C
    C   1.0     0.247631     0.872622     0.902237  Biso 1.000000     C
    C   1.0     0.250427     0.709056     0.912614  Biso 1.000000     C
    C   1.0     0.276653     0.775656     0.986778  Biso 1.000000     C
    C   1.0     0.398090     0.955909     0.173990  Biso 1.000000     C
    C   1.0     0.502997     0.029727     0.229928  Biso 1.000000     C
    C   1.0     0.490225     0.131307     0.145143  Biso 1.000000     C
    C   1.0     0.806901     0.549225     0.888452  Biso 1.000000     C
    C   1.0     0.736218     0.466135     0.742683  Biso 1.000000     C
    C   1.0     0.720100     0.451628     0.817228  Biso 1.000000     C
    C   1.0     0.617958     0.349884     0.824011  Biso 1.000000     C
    C   1.0     0.719493     0.613463     0.174750  Biso 1.000000     C
    C   1.0     0.627326     0.533441     0.213269  Biso 1.000000     C
    C   1.0     0.648163     0.559897     0.294851  Biso 1.000000     C
    C   1.0     0.521001     0.430371     0.168717  Biso 1.000000     C
    C   1.0     0.034903     0.852860     0.355335  Biso 1.000000     C
    C   1.0     0.113005     0.968985     0.354867  Biso 1.000000     C
    C   1.0     0.181053     0.938557     0.464028  Biso 1.000000     C
    C   1.0     0.759322     0.627300     0.540647  Biso 1.000000     C
    C   1.0     0.848727     0.609474     0.521850  Biso 1.000000     C
    C   1.0     0.861260     0.768444     0.484581  Biso 1.000000     C
    C   1.0     0.127507     0.752770     0.598064  Biso 1.000000     C
    C   1.0     0.290662     0.749957     0.587549  Biso 1.000000     C
    C   1.0     0.223847     0.723318     0.513416  Biso 1.000000     C
    C   1.0     0.043666     0.601714     0.326251  Biso 1.000000     C
    C   1.0     0.969692     0.496835     0.270185  Biso 1.000000     C
    C   1.0     0.868510     0.509668     0.355019  Biso 1.000000     C
    C   1.0     0.450340     0.193802     0.612036  Biso 1.000000     C
    C   1.0     0.533503     0.264324     0.757750  Biso 1.000000     C
    C   1.0     0.548130     0.280349     0.683210  Biso 1.000000     C
    C   1.0     0.650396     0.381958     0.676414  Biso 1.000000     C
    C   1.0     0.386846     0.281275     0.325469  Biso 1.000000     C
    C   1.0     0.467044     0.373383     0.286933  Biso 1.000000     C
    C   1.0     0.440590     0.352604     0.205352  Biso 1.000000     C
    C   1.0     0.570249     0.479609     0.331486  Biso 1.000000     C
    N   1.0     0.020928     0.203760     0.922711  Biso 1.000000     N
    N   1.0     0.833500     0.079014     0.924746  Biso 1.000000     N
    N   1.0     0.727509     0.767891     0.016897  Biso 1.000000     N
    N   1.0     0.699864     0.913812     0.985645  Biso 1.000000     N
    N   1.0     0.767655     0.229071     0.140449  Biso 1.000000     N
    N   1.0     0.724305     0.119699     0.019778  Biso 1.000000     N
    N   1.0     0.609608     0.979512     0.880326  Biso 1.000000     N
    N   1.0     0.439721     0.859634     0.788666  Biso 1.000000     N
    N   1.0     0.796062     0.978728     0.577226  Biso 1.000000     N
    N   1.0     0.921157     0.166244     0.575042  Biso 1.000000     N
    N   1.0     0.232002     0.272928     0.483069  Biso 1.000000     N
    N   1.0     0.086060     0.300186     0.514097  Biso 1.000000     N
    N   1.0     0.770836     0.231719     0.359387  Biso 1.000000     N
    N   1.0     0.880551     0.275726     0.480015  Biso 1.000000     N
    N   1.0     0.020724     0.390564     0.619476  Biso 1.000000     N
    N   1.0     0.140766     0.560402     0.711345  Biso 1.000000     N
    N   1.0     0.979059     0.796260     0.077327  Biso 1.000000     N
    N   1.0     0.166487     0.921006     0.075292  Biso 1.000000     N
    N   1.0     0.272477     0.232131     0.983142  Biso 1.000000     N
    N   1.0     0.300123     0.086210     0.014394  Biso 1.000000     N
    N   1.0     0.232331     0.770953     0.859586  Biso 1.000000     N
    N   1.0     0.275679     0.880322     0.980258  Biso 1.000000     N
    N   1.0     0.390380     0.020506     0.119710  Biso 1.000000     N
    N   1.0     0.560267     0.140384     0.211370  Biso 1.000000     N
    N   1.0     0.203927     0.021296     0.422811  Biso 1.000000     N
    N   1.0     0.078832     0.833780     0.424995  Biso 1.000000     N
    N   1.0     0.767989     0.727096     0.516970  Biso 1.000000     N
    N   1.0     0.913930     0.699837     0.485940  Biso 1.000000     N
    N   1.0     0.229154     0.768304     0.640649  Biso 1.000000     N
    N   1.0     0.119438     0.724297     0.520021  Biso 1.000000     N
    N   1.0     0.979264     0.609460     0.380559  Biso 1.000000     N
    N   1.0     0.859222     0.439622     0.288690  Biso 1.000000     N
    O   1.0     0.094449     0.369570     0.116817  Biso 1.000000     O
    O   1.0     0.233561     0.461261     0.048921  Biso 1.000000     O
    O   1.0     0.196995     0.284645     0.787890  Biso 1.000000     O
    O   1.0     0.296031     0.434288     0.898403  Biso 1.000000     O
    O   1.0     0.631222     0.904689     0.382654  Biso 1.000000     O
    O   1.0     0.539085     0.765618     0.450658  Biso 1.000000     O
    O   1.0     0.714737     0.802511     0.712096  Biso 1.000000     O
    O   1.0     0.565855     0.702949     0.601321  Biso 1.000000     O
    O   1.0     0.905510     0.630491     0.883210  Biso 1.000000     O
    O   1.0     0.766423     0.538757     0.951113  Biso 1.000000     O
    O   1.0     0.803001     0.715368     0.212145  Biso 1.000000     O
    O   1.0     0.703953     0.565729     0.101630  Biso 1.000000     O
    O   1.0     0.368795     0.095312     0.617375  Biso 1.000000     O
    O   1.0     0.460905     0.234398     0.549375  Biso 1.000000     O
    O   1.0     0.285252     0.197516     0.287944  Biso 1.000000     O
    O   1.0     0.434137     0.297077     0.398717  Biso 1.000000     O
   Zn   1.0     0.193505     0.333054     0.958887  Biso 1.000000    Zn
   Zn   1.0     0.666896     0.805891     0.540954  Biso 1.000000    Zn
   Zn   1.0     0.806480     0.666966     0.041147  Biso 1.000000    Zn
   Zn   1.0     0.333094     0.194132     0.459081  Biso 1.000000    Zn
   Zn   1.0     0.739112     0.260513     0.249941  Biso 1.000000    Zn
   Zn   1.0     0.260876     0.739511     0.750092  Biso 1.000000    Zn
