#======================================================================

# CRYSTAL DATA

#----------------------------------------------------------------------

data_VESTA_phase_1


_pd_phase_name                         MOF
_cell_length_a                         13.42300
_cell_length_b                         13.46400
_cell_length_c                         16.48100
_cell_angle_alpha                      89.99500
_cell_angle_beta                       90.02000
_cell_angle_gamma                      89.89300
_symmetry_space_group_name_H-M         "P 1"
_symmetry_Int_Tables_number            1

loop_
_symmetry_equiv_pos_as_xyz
   "x, y, z"

loop_
   _atom_site_label
   _atom_site_occupancy
   _atom_site_fract_x
   _atom_site_fract_y
   _atom_site_fract_z
   _atom_site_adp_type
   _atom_site_B_iso_or_equiv
   _atom_site_type_symbol
    H   1.0     0.125201     0.869719     0.987239  Biso 1.000000     H
    H   1.0     0.625214     0.869870     0.986649  Biso 1.000000     H
    H   1.0     0.285005     0.307687     0.690532  Biso 1.000000     H
    H   1.0     0.785129     0.307666     0.690575  Biso 1.000000     H
    H   1.0     0.284554     0.192304     0.810720  Biso 1.000000     H
    H   1.0     0.784628     0.192296     0.810758  Biso 1.000000     H
    H   1.0     0.465563     0.307026     0.689004  Biso 1.000000     H
    H   1.0     0.965458     0.307010     0.689049  Biso 1.000000     H
    H   1.0     0.465221     0.191668     0.809211  Biso 1.000000     H
    H   1.0     0.965170     0.191623     0.809221  Biso 1.000000     H
    H   1.0     0.124818     0.630024     0.486237  Biso 1.000000     H
    H   1.0     0.624831     0.630389     0.487722  Biso 1.000000     H
    H   1.0     0.464993     0.192259     0.190409  Biso 1.000000     H
    H   1.0     0.965081     0.192196     0.190465  Biso 1.000000     H
    H   1.0     0.465326     0.307639     0.310562  Biso 1.000000     H
    H   1.0     0.965447     0.307544     0.310653  Biso 1.000000     H
    H   1.0     0.284624     0.193091     0.189150  Biso 1.000000     H
    H   1.0     0.784562     0.193057     0.189202  Biso 1.000000     H
    H   1.0     0.284828     0.308444     0.309324  Biso 1.000000     H
    H   1.0     0.784735     0.308415     0.309383  Biso 1.000000     H
    H   1.0     0.374825     0.130126     0.013347  Biso 1.000000     H
    H   1.0     0.874838     0.130278     0.012755  Biso 1.000000     H
    H   1.0     0.214909     0.692330     0.309419  Biso 1.000000     H
    H   1.0     0.715034     0.692310     0.309462  Biso 1.000000     H
    H   1.0     0.215411     0.807702     0.189237  Biso 1.000000     H
    H   1.0     0.715485     0.807694     0.189275  Biso 1.000000     H
    H   1.0     0.034580     0.692987     0.310944  Biso 1.000000     H
    H   1.0     0.534476     0.692970     0.310990  Biso 1.000000     H
    H   1.0     0.034869     0.808374     0.190773  Biso 1.000000     H
    H   1.0     0.534817     0.808330     0.190784  Biso 1.000000     H
    H   1.0     0.375208     0.369608     0.512272  Biso 1.000000     H
    H   1.0     0.875221     0.369973     0.513754  Biso 1.000000     H
    H   1.0     0.034958     0.807800     0.809529  Biso 1.000000     H
    H   1.0     0.535046     0.807737     0.809585  Biso 1.000000     H
    H   1.0     0.034592     0.692454     0.689341  Biso 1.000000     H
    H   1.0     0.534713     0.692359     0.689432  Biso 1.000000     H
    H   1.0     0.215476     0.806940     0.810793  Biso 1.000000     H
    H   1.0     0.715415     0.806905     0.810845  Biso 1.000000     H
    H   1.0     0.215304     0.691582     0.690610  Biso 1.000000     H
    H   1.0     0.715211     0.691553     0.690670  Biso 1.000000     H
    C   1.0     0.125271     0.381714     0.611216  Biso 1.000000     C
    C   1.0     0.625423     0.381687     0.611196  Biso 1.000000     C
    C   1.0     0.125227     0.313403     0.682624  Biso 1.000000     C
    C   1.0     0.625355     0.313397     0.682622  Biso 1.000000     C
    C   1.0     0.215499     0.281474     0.716847  Biso 1.000000     C
    C   1.0     0.715610     0.281466     0.716870  Biso 1.000000     C
    C   1.0     0.124740     0.117918     0.888607  Biso 1.000000     C
    C   1.0     0.624799     0.117939     0.888620  Biso 1.000000     C
    C   1.0     0.124836     0.185752     0.816746  Biso 1.000000     C
    C   1.0     0.624909     0.185768     0.816758  Biso 1.000000     C
    C   1.0     0.215310     0.218007     0.783397  Biso 1.000000     C
    C   1.0     0.715395     0.218009     0.783424  Biso 1.000000     C
    C   1.0     0.034780     0.281087     0.716029  Biso 1.000000     C
    C   1.0     0.534892     0.281100     0.716013  Biso 1.000000     C
    C   1.0     0.034553     0.217622     0.782573  Biso 1.000000     C
    C   1.0     0.534638     0.217649     0.782567  Biso 1.000000     C
    C   1.0     0.124802     0.118305     0.111207  Biso 1.000000     C
    C   1.0     0.624751     0.118297     0.111218  Biso 1.000000     C
    C   1.0     0.124833     0.186586     0.182633  Biso 1.000000     C
    C   1.0     0.624772     0.186599     0.182631  Biso 1.000000     C
    C   1.0     0.034546     0.218450     0.216818  Biso 1.000000     C
    C   1.0     0.534476     0.218496     0.216779  Biso 1.000000     C
    C   1.0     0.125219     0.382049     0.388627  Biso 1.000000     C
    C   1.0     0.625105     0.382086     0.388608  Biso 1.000000     C
    C   1.0     0.125140     0.314216     0.316768  Biso 1.000000     C
    C   1.0     0.625043     0.314249     0.316753  Biso 1.000000     C
    C   1.0     0.034688     0.281902     0.283370  Biso 1.000000     C
    C   1.0     0.534602     0.281962     0.283321  Biso 1.000000     C
    C   1.0     0.215258     0.218953     0.216091  Biso 1.000000     C
    C   1.0     0.715190     0.218944     0.216118  Biso 1.000000     C
    C   1.0     0.215439     0.282403     0.282638  Biso 1.000000     C
    C   1.0     0.715354     0.282402     0.282663  Biso 1.000000     C
    C   1.0     0.374615     0.618310     0.388798  Biso 1.000000     C
    C   1.0     0.874768     0.618283     0.388778  Biso 1.000000     C
    C   1.0     0.374683     0.686599     0.317372  Biso 1.000000     C
    C   1.0     0.874812     0.686593     0.317370  Biso 1.000000     C
    C   1.0     0.284429     0.718531     0.283124  Biso 1.000000     C
    C   1.0     0.784540     0.718523     0.283147  Biso 1.000000     C
    C   1.0     0.375240     0.882058     0.111374  Biso 1.000000     C
    C   1.0     0.875299     0.882079     0.111388  Biso 1.000000     C
    C   1.0     0.375130     0.814230     0.183237  Biso 1.000000     C
    C   1.0     0.875203     0.814246     0.183248  Biso 1.000000     C
    C   1.0     0.284644     0.781989     0.216571  Biso 1.000000     C
    C   1.0     0.784729     0.781990     0.216597  Biso 1.000000     C
    C   1.0     0.465147     0.718896     0.283982  Biso 1.000000     C
    C   1.0     0.965259     0.718910     0.283965  Biso 1.000000     C
    C   1.0     0.465401     0.782349     0.217428  Biso 1.000000     C
    C   1.0     0.965486     0.782376     0.217421  Biso 1.000000     C
    C   1.0     0.375288     0.881700     0.888776  Biso 1.000000     C
    C   1.0     0.875237     0.881692     0.888788  Biso 1.000000     C
    C   1.0     0.375267     0.813398     0.817364  Biso 1.000000     C
    C   1.0     0.875206     0.813410     0.817361  Biso 1.000000     C
    C   1.0     0.465562     0.781500     0.783215  Biso 1.000000     C
    C   1.0     0.965493     0.781547     0.783176  Biso 1.000000     C
    C   1.0     0.374934     0.617912     0.611386  Biso 1.000000     C
    C   1.0     0.874819     0.617947     0.611367  Biso 1.000000     C
    C   1.0     0.374996     0.685749     0.683240  Biso 1.000000     C
    C   1.0     0.874899     0.685782     0.683226  Biso 1.000000     C
    C   1.0     0.465437     0.718035     0.716673  Biso 1.000000     C
    C   1.0     0.965351     0.718096     0.716623  Biso 1.000000     C
    C   1.0     0.284849     0.781053     0.783876  Biso 1.000000     C
    C   1.0     0.784781     0.781043     0.783903  Biso 1.000000     C
    C   1.0     0.284685     0.717596     0.717331  Biso 1.000000     C
    C   1.0     0.784600     0.717594     0.717356  Biso 1.000000     C
    O   1.0     0.125118     0.940029     0.000000  Biso 1.000000     O
    O   1.0     0.625128     0.940009     0.000000  Biso 1.000000     O
    O   1.0     0.040095     0.092233     0.916507  Biso 1.000000     O
    O   1.0     0.540157     0.092233     0.916501  Biso 1.000000     O
    O   1.0     0.040715     0.408077     0.583202  Biso 1.000000     O
    O   1.0     0.540880     0.408055     0.583189  Biso 1.000000     O
    O   1.0     0.209398     0.092089     0.916607  Biso 1.000000     O
    O   1.0     0.709463     0.092124     0.916632  Biso 1.000000     O
    O   1.0     0.209769     0.408016     0.583313  Biso 1.000000     O
    O   1.0     0.709954     0.407935     0.583280  Biso 1.000000     O
    O   1.0     0.124909     0.560005     0.500059  Biso 1.000000     O
    O   1.0     0.624927     0.559943     0.499988  Biso 1.000000     O
    O   1.0     0.209879     0.407733     0.416557  Biso 1.000000     O
    O   1.0     0.709738     0.407823     0.416518  Biso 1.000000     O
    O   1.0     0.209347     0.091961     0.083216  Biso 1.000000     O
    O   1.0     0.709288     0.091936     0.083238  Biso 1.000000     O
    O   1.0     0.040572     0.407886     0.416588  Biso 1.000000     O
    O   1.0     0.540443     0.407877     0.416596  Biso 1.000000     O
    O   1.0     0.040285     0.092019     0.083271  Biso 1.000000     O
    O   1.0     0.540231     0.092012     0.083274  Biso 1.000000     O
    O   1.0     0.374911     0.059988    -0.000047  Biso 1.000000     O
    O   1.0     0.874921     0.059968    -0.000016  Biso 1.000000     O
    O   1.0     0.459882     0.907764     0.083493  Biso 1.000000     O
    O   1.0     0.959944     0.907764     0.083487  Biso 1.000000     O
    O   1.0     0.459159     0.591942     0.416806  Biso 1.000000     O
    O   1.0     0.959324     0.591920     0.416792  Biso 1.000000     O
    O   1.0     0.290576     0.907873     0.083362  Biso 1.000000     O
    O   1.0     0.790641     0.907908     0.083387  Biso 1.000000     O
    O   1.0     0.290085     0.592062     0.416714  Biso 1.000000     O
    O   1.0     0.790269     0.591981     0.416682  Biso 1.000000     O
    O   1.0     0.375112     0.440053     0.500006  Biso 1.000000     O
    O   1.0     0.875130     0.439992     0.499935  Biso 1.000000     O
    O   1.0     0.290301     0.592174     0.583476  Biso 1.000000     O
    O   1.0     0.790160     0.592264     0.583437  Biso 1.000000     O
    O   1.0     0.290751     0.908061     0.916756  Biso 1.000000     O
    O   1.0     0.790692     0.908036     0.916779  Biso 1.000000     O
    O   1.0     0.459596     0.592119     0.583399  Biso 1.000000     O
    O   1.0     0.959467     0.592111     0.583406  Biso 1.000000     O
    O   1.0     0.459807     0.907985     0.916720  Biso 1.000000     O
    O   1.0     0.959754     0.907978     0.916724  Biso 1.000000     O
   Al   1.0     0.000000    -0.000000    -0.000000  Biso 1.000000    Al
   Al   1.0     0.500012    -0.000000    -0.000000  Biso 1.000000    Al
   Al   1.0     0.250003     0.500000     0.500024  Biso 1.000000    Al
   Al   1.0     0.750036     0.499997     0.499970  Biso 1.000000    Al
   Al   1.0     0.250011    -0.000002    -0.000015  Biso 1.000000    Al
   Al   1.0     0.750013     0.000002     0.000014  Biso 1.000000    Al
   Al   1.0     0.000000     0.499998     0.499997  Biso 1.000000    Al
   Al   1.0     0.500019     0.499998     0.499997  Biso 1.000000    Al
