#======================================================================

# CRYSTAL DATA

#----------------------------------------------------------------------

data_VESTA_phase_1


_pd_phase_name                         MOF
_cell_length_a                         13.41700
_cell_length_b                         13.83100
_cell_length_c                         16.19700
_cell_angle_alpha                      89.99900
_cell_angle_beta                       89.94600
_cell_angle_gamma                      90.10600
_symmetry_space_group_name_H-M         "P 1"
_symmetry_Int_Tables_number            1

loop_
_symmetry_equiv_pos_as_xyz
   "x, y, z"

loop_
   _atom_site_label
   _atom_site_occupancy
   _atom_site_fract_x
   _atom_site_fract_y
   _atom_site_fract_z
   _atom_site_adp_type
   _atom_site_B_iso_or_equiv
   _atom_site_type_symbol
    H   1.0     0.374618     0.873852     0.015573  Biso 1.000000     H
    H   1.0     0.874615     0.873592     0.014608  Biso 1.000000     H
    H   1.0     0.215842     0.296800     0.317785  Biso 1.000000     H
    H   1.0     0.716107     0.296696     0.318130  Biso 1.000000     H
    H   1.0     0.215738     0.179733     0.198971  Biso 1.000000     H
    H   1.0     0.715724     0.179607     0.199301  Biso 1.000000     H
    H   1.0     0.534135     0.320573     0.300585  Biso 1.000000     H
    H   1.0     0.000000     0.320652     0.300247  Biso 1.000000     H
    H   1.0     0.533874     0.203262     0.181863  Biso 1.000000     H
    H   1.0     0.000000     0.203353     0.181534  Biso 1.000000     H
    H   1.0     0.375178     0.625736     0.516766  Biso 1.000000     H
    H   1.0     0.875229     0.627012     0.511973  Biso 1.000000     H
    H   1.0     0.534868     0.201919     0.815544  Biso 1.000000     H
    H   1.0     0.000000     0.201871     0.815264  Biso 1.000000     H
    H   1.0     0.533749     0.319018     0.696711  Biso 1.000000     H
    H   1.0     0.000000     0.318933     0.696417  Biso 1.000000     H
    H   1.0     0.216149     0.180584     0.802803  Biso 1.000000     H
    H   1.0     0.716209     0.180864     0.803179  Biso 1.000000     H
    H   1.0     0.215194     0.297871     0.684067  Biso 1.000000     H
    H   1.0     0.715032     0.298178     0.684477  Biso 1.000000     H
    H   1.0     0.125387     0.125936     0.983848  Biso 1.000000     H
    H   1.0     0.625370     0.126625     0.986355  Biso 1.000000     H
    H   1.0     0.284171     0.703230     0.682166  Biso 1.000000     H
    H   1.0     0.783865     0.703258     0.681903  Biso 1.000000     H
    H   1.0     0.284289     0.820294     0.800975  Biso 1.000000     H
    H   1.0     0.784238     0.820345     0.800738  Biso 1.000000     H
    H   1.0    -0.034107     0.679356     0.699458  Biso 1.000000     H
    H   1.0     0.465642     0.679343     0.699742  Biso 1.000000     H
    H   1.0    -0.033829     0.796659     0.818194  Biso 1.000000     H
    H   1.0     0.466160     0.796652     0.818440  Biso 1.000000     H
    H   1.0     0.124807     0.374105     0.483638  Biso 1.000000     H
    H   1.0     0.624772     0.372976     0.487956  Biso 1.000000     H
    H   1.0    -0.034921     0.798022     0.184478  Biso 1.000000     H
    H   1.0     0.465056     0.798114     0.184735  Biso 1.000000     H
    H   1.0    -0.033778     0.680921     0.303298  Biso 1.000000     H
    H   1.0     0.466359     0.681057     0.303594  Biso 1.000000     H
    H   1.0     0.283797     0.819414     0.197207  Biso 1.000000     H
    H   1.0     0.783834     0.819072     0.196836  Biso 1.000000     H
    H   1.0     0.284773     0.702126     0.315948  Biso 1.000000     H
    H   1.0     0.784990     0.701758     0.315530  Biso 1.000000     H
    C   1.0     0.375419     0.383841     0.387384  Biso 1.000000     C
    C   1.0     0.875746     0.383764     0.387448  Biso 1.000000     C
    C   1.0     0.375081     0.314932     0.316370  Biso 1.000000     C
    C   1.0     0.875317     0.314900     0.316385  Biso 1.000000     C
    C   1.0     0.285023     0.275688     0.287687  Biso 1.000000     C
    C   1.0     0.785197     0.275613     0.287869  Biso 1.000000     C
    C   1.0     0.374398     0.116081     0.112560  Biso 1.000000     C
    C   1.0     0.874259     0.116061     0.112566  Biso 1.000000     C
    C   1.0     0.374779     0.184973     0.183765  Biso 1.000000     C
    C   1.0     0.874721     0.184954     0.183766  Biso 1.000000     C
    C   1.0     0.284845     0.211149     0.221870  Biso 1.000000     C
    C   1.0     0.784880     0.211076     0.222047  Biso 1.000000     C
    C   1.0     0.464985     0.288850     0.278102  Biso 1.000000     C
    C   1.0     0.965119     0.288881     0.277929  Biso 1.000000     C
    C   1.0     0.464851     0.224269     0.212301  Biso 1.000000     C
    C   1.0     0.964850     0.224308     0.212124  Biso 1.000000     C
    C   1.0     0.375950     0.116200     0.887431  Biso 1.000000     C
    C   1.0     0.876115     0.116255     0.887455  Biso 1.000000     C
    C   1.0     0.375501     0.185044     0.816371  Biso 1.000000     C
    C   1.0     0.875600     0.185134     0.816411  Biso 1.000000     C
    C   1.0     0.465341     0.223543     0.786380  Biso 1.000000     C
    C   1.0     0.965391     0.223554     0.786246  Biso 1.000000     C
    C   1.0     0.373958     0.383811     0.612520  Biso 1.000000     C
    C   1.0     0.873778     0.383911     0.612561  Biso 1.000000     C
    C   1.0     0.374425     0.314952     0.683744  Biso 1.000000     C
    C   1.0     0.874294     0.315063     0.683787  Biso 1.000000     C
    C   1.0     0.464829     0.288079     0.720558  Biso 1.000000     C
    C   1.0     0.964774     0.288090     0.720425  Biso 1.000000     C
    C   1.0     0.285129     0.211818     0.779383  Biso 1.000000     C
    C   1.0     0.785152     0.212018     0.779606  Biso 1.000000     C
    C   1.0     0.284573     0.276382     0.713578  Biso 1.000000     C
    C   1.0     0.784488     0.276598     0.713812  Biso 1.000000     C
    C   1.0     0.124595     0.616133     0.612613  Biso 1.000000     C
    C   1.0     0.624229     0.616206     0.612564  Biso 1.000000     C
    C   1.0     0.124939     0.685043     0.683628  Biso 1.000000     C
    C   1.0     0.624652     0.685075     0.683623  Biso 1.000000     C
    C   1.0     0.214996     0.724315     0.712285  Biso 1.000000     C
    C   1.0     0.714770     0.724352     0.712152  Biso 1.000000     C
    C   1.0     0.125640     0.883880     0.887449  Biso 1.000000     C
    C   1.0     0.625697     0.883928     0.887433  Biso 1.000000     C
    C   1.0     0.125257     0.814997     0.816236  Biso 1.000000     C
    C   1.0     0.625236     0.815029     0.816238  Biso 1.000000     C
    C   1.0     0.215182     0.788853     0.778102  Biso 1.000000     C
    C   1.0     0.715083     0.788891     0.777974  Biso 1.000000     C
    C   1.0     0.035043     0.711098     0.721923  Biso 1.000000     C
    C   1.0     0.534845     0.711107     0.722065  Biso 1.000000     C
    C   1.0     0.035184     0.775676     0.787727  Biso 1.000000     C
    C   1.0     0.535108     0.775686     0.787866  Biso 1.000000     C
    C   1.0     0.123993     0.883774     0.112586  Biso 1.000000     C
    C   1.0     0.623932     0.883694     0.112541  Biso 1.000000     C
    C   1.0     0.124446     0.814927     0.183642  Biso 1.000000     C
    C   1.0     0.624443     0.814823     0.183593  Biso 1.000000     C
    C   1.0     0.034614     0.776411     0.213634  Biso 1.000000     C
    C   1.0     0.534645     0.776419     0.213757  Biso 1.000000     C
    C   1.0     0.126022     0.616144     0.387482  Biso 1.000000     C
    C   1.0     0.626232     0.616055     0.387449  Biso 1.000000     C
    C   1.0     0.125547     0.685012     0.316265  Biso 1.000000     C
    C   1.0     0.625725     0.684899     0.316220  Biso 1.000000     C
    C   1.0     0.035137     0.711873     0.279453  Biso 1.000000     C
    C   1.0     0.535250     0.711885     0.279581  Biso 1.000000     C
    C   1.0     0.214824     0.788167     0.220629  Biso 1.000000     C
    C   1.0     0.714884     0.787927     0.220401  Biso 1.000000     C
    C   1.0     0.215391     0.723601     0.286434  Biso 1.000000     C
    C   1.0     0.715538     0.723348     0.286196  Biso 1.000000     C
    O   1.0     0.374902     0.941550    -0.000045  Biso 1.000000     O
    O   1.0     0.874909     0.941586    -0.000025  Biso 1.000000     O
    O   1.0     0.458867     0.092034     0.083014  Biso 1.000000     O
    O   1.0     0.958697     0.091945     0.083041  Biso 1.000000     O
    O   1.0     0.460103     0.412358     0.413525  Biso 1.000000     O
    O   1.0     0.960524     0.412156     0.413602  Biso 1.000000     O
    O   1.0     0.289534     0.087926     0.086643  Biso 1.000000     O
    O   1.0     0.789356     0.087972     0.086625  Biso 1.000000     O
    O   1.0     0.291072     0.408282     0.417072  Biso 1.000000     O
    O   1.0     0.791420     0.408220     0.417110  Biso 1.000000     O
    O   1.0     0.375086     0.558433     0.499936  Biso 1.000000     O
    O   1.0     0.875118     0.558303     0.500057  Biso 1.000000     O
    O   1.0     0.289133     0.411619     0.586493  Biso 1.000000     O
    O   1.0     0.788920     0.411642     0.586461  Biso 1.000000     O
    O   1.0     0.291515     0.091468     0.916969  Biso 1.000000     O
    O   1.0     0.791703     0.091491     0.916981  Biso 1.000000     O
    O   1.0     0.458522     0.408172     0.583126  Biso 1.000000     O
    O   1.0     0.958295     0.408342     0.583197  Biso 1.000000     O
    O   1.0     0.460615     0.088052     0.913699  Biso 1.000000     O
    O   1.0     0.960826     0.088127     0.913704  Biso 1.000000     O
    O   1.0     0.125092     0.058432     0.000000  Biso 1.000000     O
    O   1.0     0.625088     0.058358     0.000000  Biso 1.000000     O
    O   1.0     0.041175     0.907941     0.916980  Biso 1.000000     O
    O   1.0     0.541259     0.908025     0.916977  Biso 1.000000     O
    O   1.0     0.039909     0.587617     0.586480  Biso 1.000000     O
    O   1.0     0.539450     0.587813     0.586405  Biso 1.000000     O
    O   1.0     0.210517     0.912007     0.913380  Biso 1.000000     O
    O   1.0     0.710587     0.912042     0.913361  Biso 1.000000     O
    O   1.0     0.208942     0.591694     0.582920  Biso 1.000000     O
    O   1.0     0.708556     0.591743     0.582910  Biso 1.000000     O
    O   1.0     0.124905     0.441542     0.500067  Biso 1.000000     O
    O   1.0     0.624879     0.441663     0.499961  Biso 1.000000     O
    O   1.0     0.210843     0.588324     0.413499  Biso 1.000000     O
    O   1.0     0.711090     0.588330     0.413558  Biso 1.000000     O
    O   1.0     0.208422     0.908513     0.083053  Biso 1.000000     O
    O   1.0     0.708352     0.908452     0.083011  Biso 1.000000     O
    O   1.0     0.041460     0.591790     0.416887  Biso 1.000000     O
    O   1.0     0.541714     0.591621     0.416805  Biso 1.000000     O
    O   1.0     0.039321     0.911922     0.086313  Biso 1.000000     O
    O   1.0     0.539225     0.911815     0.086293  Biso 1.000000     O
   Al   1.0     0.000009     0.000000     0.000016  Biso 1.000000    Al
   Al   1.0     0.499994    -0.000001    -0.000022  Biso 1.000000    Al
   Al   1.0     0.249998     0.499979     0.499995  Biso 1.000000    Al
   Al   1.0     0.749997     0.499985     0.500008  Biso 1.000000    Al
   Al   1.0     0.250000    -0.000005     0.000010  Biso 1.000000    Al
   Al   1.0     0.750007     0.000005    -0.000016  Biso 1.000000    Al
   Al   1.0     0.000034     0.499988     0.500067  Biso 1.000000    Al
   Al   1.0     0.499956     0.499978     0.499937  Biso 1.000000    Al
