#======================================================================

# CRYSTAL DATA

#----------------------------------------------------------------------

data_VESTA_phase_1


_pd_phase_name                         MOF
_cell_length_a                         10.56300
_cell_length_b                         11.36500
_cell_length_c                         16.81600
_cell_angle_alpha                      98.43800
_cell_angle_beta                       95.50600
_cell_angle_gamma                      101.26900
_symmetry_space_group_name_H-M         "P 1"
_symmetry_Int_Tables_number            1

loop_
_symmetry_equiv_pos_as_xyz
   "x, y, z"

loop_
   _atom_site_label
   _atom_site_occupancy
   _atom_site_fract_x
   _atom_site_fract_y
   _atom_site_fract_z
   _atom_site_adp_type
   _atom_site_B_iso_or_equiv
   _atom_site_type_symbol
    H   1.0     0.087151     0.209188     0.270518  Biso 1.000000     H
    H   1.0     0.128170     0.227940     0.759371  Biso 1.000000     H
    H   1.0     0.095926     0.739323     0.264590  Biso 1.000000     H
    H   1.0     0.116281     0.728261     0.765037  Biso 1.000000     H
    H   1.0     0.612449     0.205000     0.267340  Biso 1.000000     H
    H   1.0     0.609382     0.225883     0.769380  Biso 1.000000     H
    H   1.0     0.589643     0.745957     0.269665  Biso 1.000000     H
    H   1.0     0.621373     0.727304     0.757838  Biso 1.000000     H
    H   1.0     0.203192     0.115313     0.265362  Biso 1.000000     H
    H   1.0     0.249562     0.140865     0.764415  Biso 1.000000     H
    H   1.0     0.201900     0.637029     0.268846  Biso 1.000000     H
    H   1.0     0.218877     0.622887     0.765196  Biso 1.000000     H
    H   1.0     0.730769     0.114575     0.259117  Biso 1.000000     H
    H   1.0     0.730032     0.138707     0.760834  Biso 1.000000     H
    H   1.0     0.689574     0.638249     0.273064  Biso 1.000000     H
    H   1.0     0.725365     0.624099     0.767164  Biso 1.000000     H
    H   1.0     0.374220     0.298706     0.242781  Biso 1.000000     H
    H   1.0     0.415976     0.315571     0.732319  Biso 1.000000     H
    H   1.0     0.386340     0.796815     0.237381  Biso 1.000000     H
    H   1.0     0.407106     0.784663     0.738602  Biso 1.000000     H
    H   1.0     0.894400     0.298677     0.231907  Biso 1.000000     H
    H   1.0     0.891420     0.321384     0.734845  Biso 1.000000     H
    H   1.0     0.880650     0.795208     0.244513  Biso 1.000000     H
    H   1.0     0.912662     0.776264     0.733388  Biso 1.000000     H
    H   1.0     0.251032     0.383758     0.237316  Biso 1.000000     H
    H   1.0     0.299560     0.409105     0.735727  Biso 1.000000     H
    H   1.0     0.283153     0.901699     0.237762  Biso 1.000000     H
    H   1.0     0.301571     0.887237     0.733758  Biso 1.000000     H
    H   1.0     0.774652     0.386870     0.240739  Biso 1.000000     H
    H   1.0     0.772538     0.411198     0.743177  Biso 1.000000     H
    H   1.0     0.776998     0.898863     0.236011  Biso 1.000000     H
    H   1.0     0.813762     0.884859     0.730597  Biso 1.000000     H
    C   1.0     0.191788     0.209992     0.279326  Biso 1.000000     C
    C   1.0     0.233109     0.234115     0.774678  Biso 1.000000     C
    C   1.0     0.198201     0.734044     0.278638  Biso 1.000000     C
    C   1.0     0.218090     0.720490     0.777555  Biso 1.000000     C
    C   1.0     0.717740     0.208373     0.275439  Biso 1.000000     C
    C   1.0     0.715070     0.231643     0.778246  Biso 1.000000     C
    C   1.0     0.690642     0.736252     0.282716  Biso 1.000000     C
    C   1.0     0.722968     0.721309     0.774208  Biso 1.000000     C
    C   1.0     0.269041     0.291054     0.227345  Biso 1.000000     C
    C   1.0     0.311318     0.314431     0.722661  Biso 1.000000     C
    C   1.0     0.284330     0.804194     0.225236  Biso 1.000000     C
    C   1.0     0.304968     0.790145     0.724225  Biso 1.000000     C
    C   1.0     0.788825     0.293640     0.223401  Biso 1.000000     C
    C   1.0     0.786059     0.317603     0.726665  Biso 1.000000     C
    C   1.0     0.779032     0.801552     0.228626  Biso 1.000000     C
    C   1.0     0.811922     0.786704     0.720412  Biso 1.000000     C
    O   1.0     0.166222     0.174914     0.437824  Biso 1.000000     O
    O   1.0     0.165658     0.210262     0.923159  Biso 1.000000     O
    O   1.0     0.137984     0.724082     0.431770  Biso 1.000000     O
    O   1.0     0.185061     0.665827     0.927061  Biso 1.000000     O
    O   1.0     0.681525     0.171739     0.430602  Biso 1.000000     O
    O   1.0     0.687852     0.165621     0.924167  Biso 1.000000     O
    O   1.0     0.637777     0.720701     0.434832  Biso 1.000000     O
    O   1.0     0.662601     0.705775     0.925928  Biso 1.000000     O
    O   1.0     0.226603     0.392552     0.407095  Biso 1.000000     O
    O   1.0     0.255065     0.424378     0.892439  Biso 1.000000     O
    O   1.0     0.244580     0.930144     0.395097  Biso 1.000000     O
    O   1.0     0.227144     0.889905     0.911551  Biso 1.000000     O
    O   1.0     0.762344     0.388266     0.405524  Biso 1.000000     O
    O   1.0     0.722023     0.392254     0.915183  Biso 1.000000     O
    O   1.0     0.738907     0.930783     0.400506  Biso 1.000000     O
    O   1.0     0.750356     0.916812     0.889854  Biso 1.000000     O
    O   1.0     0.393297     0.256749     0.399442  Biso 1.000000     O
    O   1.0     0.405923     0.271771     0.909792  Biso 1.000000     O
    O   1.0     0.381181     0.767353     0.406868  Biso 1.000000     O
    O   1.0     0.412961     0.775805     0.901860  Biso 1.000000     O
    O   1.0     0.915537     0.238392     0.395407  Biso 1.000000     O
    O   1.0     0.913377     0.285874     0.901471  Biso 1.000000     O
    O   1.0     0.879785     0.770758     0.406471  Biso 1.000000     O
    O   1.0     0.901228     0.764856     0.907470  Biso 1.000000     O
    O   1.0     0.337606     0.314076     0.079248  Biso 1.000000     O
    O   1.0     0.338048     0.347607     0.563740  Biso 1.000000     O
    O   1.0     0.316529     0.858453     0.075743  Biso 1.000000     O
    O   1.0     0.365073     0.800685     0.570927  Biso 1.000000     O
    O   1.0     0.814435     0.359045     0.076795  Biso 1.000000     O
    O   1.0     0.822342     0.354728     0.571818  Biso 1.000000     O
    O   1.0     0.838503     0.818276     0.077041  Biso 1.000000     O
    O   1.0     0.866066     0.804149     0.568891  Biso 1.000000     O
    O   1.0     0.249723     0.100224     0.110639  Biso 1.000000     O
    O   1.0     0.281707     0.131051     0.595781  Biso 1.000000     O
    O   1.0     0.273720     0.634418     0.091362  Biso 1.000000     O
    O   1.0     0.260235     0.594052     0.607688  Biso 1.000000     O
    O   1.0     0.779778     0.132505     0.086215  Biso 1.000000     O
    O   1.0     0.740302     0.137788     0.596495  Biso 1.000000     O
    O   1.0     0.749345     0.606607     0.112003  Biso 1.000000     O
    O   1.0     0.761581     0.593604     0.601059  Biso 1.000000     O
    O   1.0     0.096426     0.249827     0.091676  Biso 1.000000     O
    O   1.0     0.110768     0.261774     0.601508  Biso 1.000000     O
    O   1.0     0.088667     0.749192     0.101376  Biso 1.000000     O
    O   1.0     0.122133     0.755969     0.595909  Biso 1.000000     O
    O   1.0     0.589505     0.240226     0.100948  Biso 1.000000     O
    O   1.0     0.588629     0.288782     0.606832  Biso 1.000000     O
    O   1.0     0.600093     0.760136     0.095788  Biso 1.000000     O
    O   1.0     0.623193     0.755208     0.596997  Biso 1.000000     O
    F   1.0     0.105064     0.436919     0.010333  Biso 1.000000     F
    F   1.0     0.077718     0.415728     0.513498  Biso 1.000000     F
    F   1.0     0.067255     0.929541     0.020714  Biso 1.000000     F
    F   1.0     0.088836     0.945272     0.517165  Biso 1.000000     F
    F   1.0     0.566960     0.429578     0.027836  Biso 1.000000     F
    F   1.0     0.583782     0.429620     0.493038  Biso 1.000000     F
    F   1.0     0.600004     0.939787     0.006851  Biso 1.000000     F
    F   1.0     0.577301     0.940095     0.517215  Biso 1.000000     F
    F   1.0     0.428317     0.105416     0.489704  Biso 1.000000     F
    F   1.0     0.400074     0.085677     0.993049  Biso 1.000000     F
    F   1.0     0.416438     0.579673     0.486300  Biso 1.000000     F
    F   1.0     0.433901     0.595810     0.982701  Biso 1.000000     F
    F   1.0     0.916864     0.094479     0.507162  Biso 1.000000     F
    F   1.0     0.933401     0.095127     0.972242  Biso 1.000000     F
    F   1.0     0.927754     0.584618     0.486284  Biso 1.000000     F
    F   1.0     0.900827     0.585395     0.996374  Biso 1.000000     F
    P   1.0     0.249491     0.263146     0.384558  Biso 1.000000     P
    P   1.0     0.268252     0.290282     0.882275  Biso 1.000000     P
    P   1.0     0.243391     0.789155     0.386718  Biso 1.000000     P
    P   1.0     0.264468     0.766401     0.885764  Biso 1.000000     P
    P   1.0     0.772033     0.254499     0.382924  Biso 1.000000     P
    P   1.0     0.763886     0.271895     0.886610  Biso 1.000000     P
    P   1.0     0.740048     0.791573     0.390035  Biso 1.000000     P
    P   1.0     0.762343     0.781963     0.880732  Biso 1.000000     P
    P   1.0     0.234842     0.233871     0.119888  Biso 1.000000     P
    P   1.0     0.255554     0.259493     0.617330  Biso 1.000000     P
    P   1.0     0.237166     0.758166     0.117174  Biso 1.000000     P
    P   1.0     0.260153     0.734852     0.616066  Biso 1.000000     P
    P   1.0     0.738946     0.253273     0.115043  Biso 1.000000     P
    P   1.0     0.731891     0.271833     0.619255  Biso 1.000000     P
    P   1.0     0.738727     0.741801     0.122036  Biso 1.000000     P
    P   1.0     0.762505     0.733236     0.612898  Biso 1.000000     P
   Ga   1.0     0.036955     0.259537    -0.017365  Biso 1.000000    Ga
   Ga   1.0     0.021582     0.241208     0.492747  Biso 1.000000    Ga
   Ga   1.0    -0.035359     0.765184     0.000000  Biso 1.000000    Ga
   Ga   1.0     0.000790     0.763855     0.500608  Biso 1.000000    Ga
   Ga   1.0     0.465870     0.264626     0.019252  Biso 1.000000    Ga
   Ga   1.0     0.483649     0.280411     0.508152  Biso 1.000000    Ga
   Ga   1.0     0.537424     0.760222    -0.013873  Biso 1.000000    Ga
   Ga   1.0     0.502212     0.760772     0.502532  Biso 1.000000    Ga
   Ga   1.0     0.253784    -0.024806     0.021285  Biso 1.000000    Ga
   Ga   1.0     0.239329     0.038328     0.487208  Biso 1.000000    Ga
   Ga   1.0     0.248906     0.549528    -0.018396  Biso 1.000000    Ga
   Ga   1.0     0.266425     0.485171     0.515899  Biso 1.000000    Ga
   Ga   1.0     0.748536     0.045158    -0.023659  Biso 1.000000    Ga
   Ga   1.0     0.721937     0.045380     0.488513  Biso 1.000000    Ga
   Ga   1.0     0.752208     0.479408     0.024969  Biso 1.000000    Ga
   Ga   1.0     0.780228     0.479844     0.513517  Biso 1.000000    Ga
