#======================================================================

# CRYSTAL DATA

#----------------------------------------------------------------------

data_VESTA_phase_1


_pd_phase_name                         MOF
_cell_length_a                         13.80400
_cell_length_b                         13.84000
_cell_length_c                         13.92200
_cell_angle_alpha                      108.74900
_cell_angle_beta                       89.96600
_cell_angle_gamma                      90.15500
_symmetry_space_group_name_H-M         "P 1"
_symmetry_Int_Tables_number            1

loop_
_symmetry_equiv_pos_as_xyz
   "x, y, z"

loop_
   _atom_site_label
   _atom_site_occupancy
   _atom_site_fract_x
   _atom_site_fract_y
   _atom_site_fract_z
   _atom_site_adp_type
   _atom_site_B_iso_or_equiv
   _atom_site_type_symbol
    H   1.0     0.883946     0.583677     0.155940  Biso 1.000000     H
    H   1.0     0.918823     0.726818     0.112966  Biso 1.000000     H
    H   1.0     0.771781     0.006261     0.267847  Biso 1.000000     H
    H   1.0     0.685947     0.728027     0.320963  Biso 1.000000     H
    H   1.0     0.014611     0.294692     0.155352  Biso 1.000000     H
    H   1.0     0.955089     0.473281     0.221403  Biso 1.000000     H
    H   1.0     0.668122     0.358315     0.120755  Biso 1.000000     H
    H   1.0     0.741841     0.182662     0.053799  Biso 1.000000     H
    H   1.0     0.385902     0.415776     0.344021  Biso 1.000000     H
    H   1.0     0.421186     0.272082     0.385826  Biso 1.000000     H
    H   1.0     0.271004     0.993284     0.232698  Biso 1.000000     H
    H   1.0     0.185529     0.272136     0.181629  Biso 1.000000     H
    H   1.0     0.515143     0.706847     0.345512  Biso 1.000000     H
    H   1.0     0.456380     0.527600     0.280355  Biso 1.000000     H
    H   1.0     0.169124     0.640049     0.380821  Biso 1.000000     H
    H   1.0     0.242221     0.816611     0.446898  Biso 1.000000     H
    H   1.0     0.116016     0.416360     0.844027  Biso 1.000000     H
    H   1.0     0.081138     0.273216     0.886998  Biso 1.000000     H
    H   1.0     0.228187     0.993776     0.732118  Biso 1.000000     H
    H   1.0     0.314018     0.272013     0.679007  Biso 1.000000     H
    H   1.0     0.985356     0.705354     0.844637  Biso 1.000000     H
    H   1.0     0.044875     0.526764     0.778584  Biso 1.000000     H
    H   1.0     0.331846     0.641725     0.879225  Biso 1.000000     H
    H   1.0     0.258131     0.817377     0.946179  Biso 1.000000     H
    H   1.0     0.614068     0.584269     0.655946  Biso 1.000000     H
    H   1.0     0.578787     0.727962     0.614151  Biso 1.000000     H
    H   1.0     0.728967     0.006760     0.767283  Biso 1.000000     H
    H   1.0     0.814429     0.727911     0.818365  Biso 1.000000     H
    H   1.0     0.484819     0.293189     0.654450  Biso 1.000000     H
    H   1.0     0.543572     0.472440     0.719620  Biso 1.000000     H
    H   1.0     0.830839     0.360006     0.619176  Biso 1.000000     H
    H   1.0     0.757750     0.183440     0.553082  Biso 1.000000     H
    C   1.0     0.804583     0.714850     0.216268  Biso 1.000000     C
    C   1.0     0.863263     0.766677     0.166782  Biso 1.000000     C
    C   1.0     0.850787     0.871023     0.183986  Biso 1.000000     C
    C   1.0     0.780974     0.924789     0.253504  Biso 1.000000     C
    C   1.0     0.722184     0.872828     0.302524  Biso 1.000000     C
    C   1.0     0.732780     0.767707     0.283390  Biso 1.000000     C
    C   1.0     0.761923     0.535599     0.209335  Biso 1.000000     C
    C   1.0     0.938871     0.312737     0.147457  Biso 1.000000     C
    C   1.0     0.904461     0.412264     0.183707  Biso 1.000000     C
    C   1.0     0.805854     0.430526     0.173241  Biso 1.000000     C
    C   1.0     0.745388     0.346799     0.128275  Biso 1.000000     C
    C   1.0     0.785428     0.249796     0.092135  Biso 1.000000     C
    C   1.0     0.910703     0.922338     0.123944  Biso 1.000000     C
    C   1.0     0.645168     0.927886     0.375761  Biso 1.000000     C
    C   1.0     0.305579     0.284667     0.284419  Biso 1.000000     C
    C   1.0     0.364767     0.232529     0.332799  Biso 1.000000     C
    C   1.0     0.351649     0.128195     0.315530  Biso 1.000000     C
    C   1.0     0.280702     0.074745     0.247013  Biso 1.000000     C
    C   1.0     0.221481     0.127018     0.198978  Biso 1.000000     C
    C   1.0     0.232730     0.232149     0.218287  Biso 1.000000     C
    C   1.0     0.262986     0.463940     0.292794  Biso 1.000000     C
    C   1.0     0.439538     0.688050     0.353496  Biso 1.000000     C
    C   1.0     0.405510     0.588169     0.317798  Biso 1.000000     C
    C   1.0     0.306996     0.569161     0.328460  Biso 1.000000     C
    C   1.0     0.246291     0.652381     0.373205  Biso 1.000000     C
    C   1.0     0.285953     0.749778     0.408777  Biso 1.000000     C
    C   1.0     0.411950     0.076763     0.374853  Biso 1.000000     C
    C   1.0     0.143530     0.072502     0.126318  Biso 1.000000     C
    C   1.0     0.195376     0.285186     0.783693  Biso 1.000000     C
    C   1.0     0.136699     0.233360     0.833183  Biso 1.000000     C
    C   1.0     0.149179     0.129016     0.815982  Biso 1.000000     C
    C   1.0     0.218987     0.075247     0.746459  Biso 1.000000     C
    C   1.0     0.277776     0.127209     0.697437  Biso 1.000000     C
    C   1.0     0.267190     0.232333     0.716584  Biso 1.000000     C
    C   1.0     0.238045     0.464441     0.790651  Biso 1.000000     C
    C   1.0     0.061096     0.687310     0.852535  Biso 1.000000     C
    C   1.0     0.095503     0.587782     0.816277  Biso 1.000000     C
    C   1.0     0.194111     0.569515     0.826733  Biso 1.000000     C
    C   1.0     0.254580     0.653238     0.871704  Biso 1.000000     C
    C   1.0     0.214542     0.750243     0.907850  Biso 1.000000     C
    C   1.0     0.089263     0.077699     0.876023  Biso 1.000000     C
    C   1.0     0.354808     0.072153     0.624221  Biso 1.000000     C
    C   1.0     0.694383     0.715380     0.715573  Biso 1.000000     C
    C   1.0     0.635208     0.767512     0.667177  Biso 1.000000     C
    C   1.0     0.648317     0.871849     0.684454  Biso 1.000000     C
    C   1.0     0.719264     0.925300     0.752970  Biso 1.000000     C
    C   1.0     0.778487     0.873028     0.801004  Biso 1.000000     C
    C   1.0     0.767233     0.767899     0.781703  Biso 1.000000     C
    C   1.0     0.736957     0.536111     0.707235  Biso 1.000000     C
    C   1.0     0.560426     0.311997     0.646491  Biso 1.000000     C
    C   1.0     0.594451     0.411879     0.682180  Biso 1.000000     C
    C   1.0     0.692965     0.430883     0.671508  Biso 1.000000     C
    C   1.0     0.753673     0.347662     0.626782  Biso 1.000000     C
    C   1.0     0.714013     0.250265     0.591215  Biso 1.000000     C
    C   1.0     0.588032     0.923275     0.625110  Biso 1.000000     C
    C   1.0     0.856429     0.927545     0.873677  Biso 1.000000     C
    N   1.0     0.822263     0.609553     0.196088  Biso 1.000000     N
    N   1.0     0.880723     0.232906     0.101267  Biso 1.000000     N
    N   1.0     0.323684     0.389978     0.304693  Biso 1.000000     N
    N   1.0     0.381140     0.767404     0.399350  Biso 1.000000     N
    N   1.0     0.177698     0.390484     0.803879  Biso 1.000000     N
    N   1.0     0.119248     0.767141     0.898713  Biso 1.000000     N
    N   1.0     0.676283     0.610066     0.695280  Biso 1.000000     N
    N   1.0     0.618821     0.232646     0.600618  Biso 1.000000     N
    O   1.0     0.679499     0.550290     0.245507  Biso 1.000000     O
    O   1.0     0.979102     0.869945     0.071182  Biso 1.000000     O
    O   1.0     0.886855     0.012663     0.129065  Biso 1.000000     O
    O   1.0     0.661152     0.020300     0.428441  Biso 1.000000     O
    O   1.0     0.569827     0.875873     0.379339  Biso 1.000000     O
    O   1.0     0.180002     0.449179     0.258000  Biso 1.000000     O
    O   1.0     0.481451     0.128666     0.426420  Biso 1.000000     O
    O   1.0     0.387235     0.986735     0.370477  Biso 1.000000     O
    O   1.0     0.158614     0.980082     0.073247  Biso 1.000000     O
    O   1.0     0.068584     0.124896     0.123488  Biso 1.000000     O
    O   1.0     0.320464     0.449742     0.754467  Biso 1.000000     O
    O   1.0     0.020879     0.130101     0.928803  Biso 1.000000     O
    O   1.0     0.113106     0.987371     0.870897  Biso 1.000000     O
    O   1.0     0.338828     0.979739     0.571540  Biso 1.000000     O
    O   1.0     0.430136     0.124178     0.620625  Biso 1.000000     O
    O   1.0     0.819951     0.550866     0.742002  Biso 1.000000     O
    O   1.0     0.518533     0.871370     0.573543  Biso 1.000000     O
    O   1.0     0.612732     0.013312     0.629504  Biso 1.000000     O
    O   1.0     0.841361     0.019977     0.926718  Biso 1.000000     O
    O   1.0     0.931367     0.875147     0.876522  Biso 1.000000     O
   Zn   1.0     0.057812     0.909984     0.962621  Biso 1.000000    Zn
   Zn   1.0     0.558019     0.089413     0.536881  Biso 1.000000    Zn
   Zn   1.0     0.942156     0.090072     0.037360  Biso 1.000000    Zn
   Zn   1.0     0.441955     0.910642     0.463098  Biso 1.000000    Zn
