#======================================================================

# CRYSTAL DATA

#----------------------------------------------------------------------

data_VESTA_phase_1


_pd_phase_name                         MOF
_cell_length_a                         14.34000
_cell_length_b                         14.70100
_cell_length_c                         15.27500
_cell_angle_alpha                      89.95700
_cell_angle_beta                       97.22200
_cell_angle_gamma                      89.94200
_symmetry_space_group_name_H-M         "P 1"
_symmetry_Int_Tables_number            1

loop_
_symmetry_equiv_pos_as_xyz
   "x, y, z"

loop_
   _atom_site_label
   _atom_site_occupancy
   _atom_site_fract_x
   _atom_site_fract_y
   _atom_site_fract_z
   _atom_site_adp_type
   _atom_site_B_iso_or_equiv
   _atom_site_type_symbol
    H   1.0     0.402960     0.142816     0.398498  Biso 1.000000     H
    H   1.0     0.903126     0.143996     0.400412  Biso 1.000000     H
    H   1.0     0.351426     0.008688     0.301474  Biso 1.000000     H
    H   1.0     0.851671     0.010415     0.302684  Biso 1.000000     H
    H   1.0     0.331328     0.843939     0.517745  Biso 1.000000     H
    H   1.0     0.831310     0.844448     0.518047  Biso 1.000000     H
    H   1.0     0.372530     0.974182     0.623496  Biso 1.000000     H
    H   1.0     0.872354     0.974102     0.624471  Biso 1.000000     H
    H   1.0     0.325041     0.987632     0.060982  Biso 1.000000     H
    H   1.0     0.825351     0.988020     0.061695  Biso 1.000000     H
    H   1.0     0.336222     0.093062     0.932926  Biso 1.000000     H
    H   1.0     0.836113     0.093121     0.933301  Biso 1.000000     H
    H   1.0     0.068767     0.835100     0.170672  Biso 1.000000     H
    H   1.0     0.568228     0.834712     0.170461  Biso 1.000000     H
    H   1.0     0.346395     0.642019     0.601173  Biso 1.000000     H
    H   1.0     0.846285     0.643078     0.598669  Biso 1.000000     H
    H   1.0     0.396794     0.507395     0.698188  Biso 1.000000     H
    H   1.0     0.896746     0.509649     0.697332  Biso 1.000000     H
    H   1.0     0.419361     0.343542     0.481933  Biso 1.000000     H
    H   1.0     0.919199     0.342918     0.483082  Biso 1.000000     H
    H   1.0     0.378920     0.474239     0.376304  Biso 1.000000     H
    H   1.0     0.878616     0.472279     0.375873  Biso 1.000000     H
    H   1.0     0.425319     0.485697     0.938936  Biso 1.000000     H
    H   1.0     0.924611     0.486540     0.939335  Biso 1.000000     H
    H   1.0     0.414534     0.591827     0.066553  Biso 1.000000     H
    H   1.0     0.913791     0.592732     0.066850  Biso 1.000000     H
    H   1.0     0.181477     0.334104     0.829997  Biso 1.000000     H
    H   1.0     0.680640     0.335159     0.830232  Biso 1.000000     H
    H   1.0     0.096871     0.856038     0.599534  Biso 1.000000     H
    H   1.0     0.597044     0.857220     0.601466  Biso 1.000000     H
    H   1.0     0.148325     0.989621     0.697262  Biso 1.000000     H
    H   1.0     0.648573     0.991352     0.698490  Biso 1.000000     H
    H   1.0     0.168684     0.155586     0.481899  Biso 1.000000     H
    H   1.0     0.668665     0.156099     0.482216  Biso 1.000000     H
    H   1.0     0.127641     0.025932     0.375475  Biso 1.000000     H
    H   1.0     0.627467     0.025853     0.376467  Biso 1.000000     H
    H   1.0     0.174654     0.012007     0.938252  Biso 1.000000     H
    H   1.0     0.674952     0.012394     0.938978  Biso 1.000000     H
    H   1.0     0.163891     0.906910     0.066655  Biso 1.000000     H
    H   1.0     0.663769     0.906962     0.067034  Biso 1.000000     H
    H   1.0     0.431765     0.165313     0.829498  Biso 1.000000     H
    H   1.0     0.931236     0.164932     0.829283  Biso 1.000000     H
    H   1.0     0.153706     0.356957     0.401297  Biso 1.000000     H
    H   1.0     0.653602     0.358017     0.398809  Biso 1.000000     H
    H   1.0     0.103247     0.490382     0.302630  Biso 1.000000     H
    H   1.0     0.603207     0.492637     0.301786  Biso 1.000000     H
    H   1.0     0.080795     0.657122     0.516874  Biso 1.000000     H
    H   1.0     0.580639     0.656502     0.518031  Biso 1.000000     H
    H   1.0     0.121373     0.527763     0.624087  Biso 1.000000     H
    H   1.0     0.621076     0.525810     0.623669  Biso 1.000000     H
    H   1.0     0.075387     0.513494     0.060627  Biso 1.000000     H
    H   1.0     0.574690     0.514345     0.061045  Biso 1.000000     H
    H   1.0     0.086214     0.407309     0.933106  Biso 1.000000     H
    H   1.0     0.585463     0.408213     0.933425  Biso 1.000000     H
    H   1.0     0.319352     0.664877     0.169744  Biso 1.000000     H
    H   1.0     0.818534     0.665948     0.169960  Biso 1.000000     H
    C   1.0     0.413282     0.147852     0.579317  Biso 1.000000     C
    C   1.0     0.912712     0.148164     0.581468  Biso 1.000000     C
    C   1.0     0.390228     0.068423     0.518490  Biso 1.000000     C
    C   1.0     0.890252     0.068995     0.520052  Biso 1.000000     C
    C   1.0     0.386295     0.077812     0.426992  Biso 1.000000     C
    C   1.0     0.886446     0.078841     0.428601  Biso 1.000000     C
    C   1.0     0.358994     0.003708     0.373245  Biso 1.000000     C
    C   1.0     0.859124     0.005018     0.374431  Biso 1.000000     C
    C   1.0     0.346597     0.911789     0.494608  Biso 1.000000     C
    C   1.0     0.846577     0.912436     0.495243  Biso 1.000000     C
    C   1.0     0.370269     0.983352     0.552516  Biso 1.000000     C
    C   1.0     0.870241     0.983675     0.553552  Biso 1.000000     C
    C   1.0     0.382192     0.864730     0.185109  Biso 1.000000     C
    C   1.0     0.883008     0.864944     0.185824  Biso 1.000000     C
    C   1.0     0.439747     0.906345     0.120848  Biso 1.000000     C
    C   1.0     0.940166     0.906668     0.121294  Biso 1.000000     C
    C   1.0     0.398758     0.969767     0.060478  Biso 1.000000     C
    C   1.0     0.899009     0.970043     0.060965  Biso 1.000000     C
    C   1.0     0.451174     0.011746     0.999131  Biso 1.000000     C
    C   1.0     0.951206     0.011829     0.999316  Biso 1.000000     C
    C   1.0     0.410680     0.076317     0.936096  Biso 1.000000     C
    C   1.0     0.910530     0.076298     0.936269  Biso 1.000000     C
    C   1.0     0.036588     0.883613     0.122252  Biso 1.000000     C
    C   1.0     0.536194     0.883385     0.122129  Biso 1.000000     C
    C   1.0     0.338036     0.647968     0.420415  Biso 1.000000     C
    C   1.0     0.838297     0.646553     0.417583  Biso 1.000000     C
    C   1.0     0.360248     0.568157     0.481226  Biso 1.000000     C
    C   1.0     0.859996     0.567572     0.479622  Biso 1.000000     C
    C   1.0     0.363263     0.577090     0.572678  Biso 1.000000     C
    C   1.0     0.863083     0.577732     0.570967  Biso 1.000000     C
    C   1.0     0.390010     0.502692     0.626429  Biso 1.000000     C
    C   1.0     0.889935     0.504008     0.625627  Biso 1.000000     C
    C   1.0     0.403668     0.411266     0.505110  Biso 1.000000     C
    C   1.0     0.903543     0.410970     0.505428  Biso 1.000000     C
    C   1.0     0.380450     0.483105     0.447240  Biso 1.000000     C
    C   1.0     0.880190     0.482037     0.446701  Biso 1.000000     C
    C   1.0     0.367403     0.362523     0.815130  Biso 1.000000     C
    C   1.0     0.866489     0.363581     0.815291  Biso 1.000000     C
    C   1.0     0.310271     0.404912     0.879387  Biso 1.000000     C
    C   1.0     0.809488     0.405956     0.879639  Biso 1.000000     C
    C   1.0     0.351523     0.468307     0.939480  Biso 1.000000     C
    C   1.0     0.850787     0.469231     0.939822  Biso 1.000000     C
    C   1.0     0.299268     0.510947     0.000622  Biso 1.000000     C
    C   1.0     0.798513     0.511892     0.000943  Biso 1.000000     C
    C   1.0     0.340025     0.575470     0.063410  Biso 1.000000     C
    C   1.0     0.839261     0.576452     0.063692  Biso 1.000000     C
    C   1.0     0.213704     0.382655     0.878214  Biso 1.000000     C
    C   1.0     0.712893     0.383731     0.878427  Biso 1.000000     C
    C   1.0     0.087269     0.851872     0.418480  Biso 1.000000     C
    C   1.0     0.586735     0.852177     0.420656  Biso 1.000000     C
    C   1.0     0.109741     0.931040     0.479894  Biso 1.000000     C
    C   1.0     0.609779     0.931613     0.481476  Biso 1.000000     C
    C   1.0     0.113549     0.921194     0.571346  Biso 1.000000     C
    C   1.0     0.613707     0.922225     0.572974  Biso 1.000000     C
    C   1.0     0.140871     0.995016     0.625515  Biso 1.000000     C
    C   1.0     0.641006     0.996331     0.626719  Biso 1.000000     C
    C   1.0     0.153417     0.087599     0.504703  Biso 1.000000     C
    C   1.0     0.653399     0.088249     0.505353  Biso 1.000000     C
    C   1.0     0.129754     0.016359     0.446394  Biso 1.000000     C
    C   1.0     0.629729     0.016684     0.447447  Biso 1.000000     C
    C   1.0     0.116978     0.135090     0.814116  Biso 1.000000     C
    C   1.0     0.617800     0.135303     0.814858  Biso 1.000000     C
    C   1.0     0.059836     0.093360     0.878655  Biso 1.000000     C
    C   1.0     0.560244     0.093680     0.879114  Biso 1.000000     C
    C   1.0     0.100996     0.029986     0.938983  Biso 1.000000     C
    C   1.0     0.601234     0.030256     0.939482  Biso 1.000000     C
    C   1.0     0.048799     0.988201     0.000635  Biso 1.000000     C
    C   1.0     0.548818     0.988278     0.000829  Biso 1.000000     C
    C   1.0     0.089473     0.923733     0.063683  Biso 1.000000     C
    C   1.0     0.589311     0.923706     0.063863  Biso 1.000000     C
    C   1.0     0.463798     0.116638     0.877830  Biso 1.000000     C
    C   1.0     0.963415     0.116417     0.877701  Biso 1.000000     C
    C   1.0     0.161679     0.353490     0.582388  Biso 1.000000     C
    C   1.0     0.661958     0.352073     0.579561  Biso 1.000000     C
    C   1.0     0.139986     0.432466     0.520342  Biso 1.000000     C
    C   1.0     0.639748     0.431884     0.518752  Biso 1.000000     C
    C   1.0     0.136907     0.422304     0.428997  Biso 1.000000     C
    C   1.0     0.636734     0.422948     0.427300  Biso 1.000000     C
    C   1.0     0.110054     0.496025     0.374335  Biso 1.000000     C
    C   1.0     0.609990     0.497343     0.373545  Biso 1.000000     C
    C   1.0     0.096446     0.589068     0.494530  Biso 1.000000     C
    C   1.0     0.596332     0.588776     0.494860  Biso 1.000000     C
    C   1.0     0.119800     0.518004     0.553260  Biso 1.000000     C
    C   1.0     0.619547     0.516939     0.552733  Biso 1.000000     C
    C   1.0     0.133496     0.636448     0.184680  Biso 1.000000     C
    C   1.0     0.632611     0.637526     0.184840  Biso 1.000000     C
    C   1.0     0.190505     0.594079     0.120332  Biso 1.000000     C
    C   1.0     0.689740     0.595134     0.120584  Biso 1.000000     C
    C   1.0     0.149211     0.530805     0.060145  Biso 1.000000     C
    C   1.0     0.648484     0.531736     0.060495  Biso 1.000000     C
    C   1.0     0.201489     0.488148     0.999024  Biso 1.000000     C
    C   1.0     0.700735     0.489093     0.999351  Biso 1.000000     C
    C   1.0     0.160744     0.423591     0.936270  Biso 1.000000     C
    C   1.0     0.659972     0.424570     0.936566  Biso 1.000000     C
    C   1.0     0.287100     0.616305     0.121548  Biso 1.000000     C
    C   1.0     0.786305     0.617393     0.121748  Biso 1.000000     C
    N   1.0     0.339247     0.921851     0.406239  Biso 1.000000     N
    N   1.0     0.839197     0.922974     0.406913  Biso 1.000000     N
    N   1.0     0.410149     0.420904     0.593479  Biso 1.000000     N
    N   1.0     0.910160     0.421797     0.593670  Biso 1.000000     N
    N   1.0     0.160794     0.077061     0.593033  Biso 1.000000     N
    N   1.0     0.660750     0.078187     0.593723  Biso 1.000000     N
    N   1.0     0.089829     0.578238     0.406289  Biso 1.000000     N
    N   1.0     0.589851     0.579133     0.406491  Biso 1.000000     N
    O   1.0     0.378526     0.148709     0.652134  Biso 1.000000     O
    O   1.0     0.877061     0.148537     0.653730  Biso 1.000000     O
    O   1.0     0.467190     0.209324     0.555848  Biso 1.000000     O
    O   1.0     0.966945     0.209851     0.558783  Biso 1.000000     O
    O   1.0     0.416252     0.800409     0.236982  Biso 1.000000     O
    O   1.0     0.917397     0.800656     0.237406  Biso 1.000000     O
    O   1.0     0.299383     0.894147     0.189562  Biso 1.000000     O
    O   1.0     0.800132     0.894309     0.190659  Biso 1.000000     O
    O   1.0     0.373399     0.648679     0.347963  Biso 1.000000     O
    O   1.0     0.872666     0.645096     0.344773  Biso 1.000000     O
    O   1.0     0.284202     0.709727     0.443722  Biso 1.000000     O
    O   1.0     0.785997     0.709856     0.440776  Biso 1.000000     O
    O   1.0     0.332707     0.298662     0.763331  Biso 1.000000     O
    O   1.0     0.831214     0.300610     0.762806  Biso 1.000000     O
    O   1.0     0.450567     0.391043     0.810627  Biso 1.000000     O
    O   1.0     0.950095     0.391308     0.811336  Biso 1.000000     O
    O   1.0     0.122906     0.851497     0.346210  Biso 1.000000     O
    O   1.0     0.621453     0.851336     0.347821  Biso 1.000000     O
    O   1.0     0.033037     0.790188     0.441174  Biso 1.000000     O
    O   1.0     0.532876     0.790677     0.444153  Biso 1.000000     O
    O   1.0     0.082579     0.199390     0.762558  Biso 1.000000     O
    O   1.0     0.583733     0.199623     0.762989  Biso 1.000000     O
    O   1.0     0.199847     0.105719     0.809244  Biso 1.000000     O
    O   1.0     0.700613     0.105895     0.810407  Biso 1.000000     O
    O   1.0     0.127304     0.354949     0.655194  Biso 1.000000     O
    O   1.0     0.626610     0.351366     0.652022  Biso 1.000000     O
    O   1.0     0.213979     0.290183     0.559199  Biso 1.000000     O
    O   1.0     0.715775     0.290306     0.556244  Biso 1.000000     O
    O   1.0     0.168759     0.699422     0.237168  Biso 1.000000     O
    O   1.0     0.667284     0.701416     0.236615  Biso 1.000000     O
    O   1.0     0.049892     0.608713     0.188633  Biso 1.000000     O
    O   1.0     0.549461     0.608980     0.189364  Biso 1.000000     O
   Cd   1.0     0.276319     0.800827     0.313295  Biso 1.000000    Cd
   Cd   1.0     0.775769     0.802109     0.313296  Biso 1.000000    Cd
   Cd   1.0     0.473977     0.299911     0.686828  Biso 1.000000    Cd
   Cd   1.0     0.974128     0.301491     0.687841  Biso 1.000000    Cd
   Cd   1.0     0.224224     0.197931     0.686655  Biso 1.000000    Cd
   Cd   1.0     0.723663     0.199210     0.686669  Biso 1.000000    Cd
   Cd   1.0     0.025845     0.698542     0.312118  Biso 1.000000    Cd
   Cd   1.0     0.526027     0.700129     0.313143  Biso 1.000000    Cd
