#======================================================================

# CRYSTAL DATA

#----------------------------------------------------------------------

data_VESTA_phase_1


_pd_phase_name                         MOF
_cell_length_a                         17.70300
_cell_length_b                         22.37200
_cell_length_c                         17.91300
_cell_angle_alpha                      95.08300
_cell_angle_beta                       104.29000
_cell_angle_gamma                      68.93400
_symmetry_space_group_name_H-M         "P 1"
_symmetry_Int_Tables_number            1

loop_
_symmetry_equiv_pos_as_xyz
   "x, y, z"

loop_
   _atom_site_label
   _atom_site_occupancy
   _atom_site_fract_x
   _atom_site_fract_y
   _atom_site_fract_z
   _atom_site_adp_type
   _atom_site_B_iso_or_equiv
   _atom_site_type_symbol
    H   1.0     0.088475     0.324591     0.752564  Biso 1.000000     H
    H   1.0     0.088479     0.824584     0.752571  Biso 1.000000     H
    H   1.0     0.588481     0.324593     0.752569  Biso 1.000000     H
    H   1.0     0.588484     0.824585     0.752572  Biso 1.000000     H
    H   1.0     0.356280     0.305618     0.756146  Biso 1.000000     H
    H   1.0     0.356281     0.805615     0.756150  Biso 1.000000     H
    H   1.0     0.856280     0.305615     0.756148  Biso 1.000000     H
    H   1.0     0.856281     0.805613     0.756154  Biso 1.000000     H
    H   1.0     0.293875     0.042160     0.900323  Biso 1.000000     H
    H   1.0     0.293874     0.542154     0.900320  Biso 1.000000     H
    H   1.0     0.793875     0.042160     0.900321  Biso 1.000000     H
    H   1.0     0.793877     0.542154     0.900319  Biso 1.000000     H
    H   1.0     0.099937     0.017850     0.985426  Biso 1.000000     H
    H   1.0     0.099941     0.517846     0.985431  Biso 1.000000     H
    H   1.0     0.599937     0.017861     0.985434  Biso 1.000000     H
    H   1.0     0.599942     0.517851     0.985432  Biso 1.000000     H
    H   1.0     0.138517     0.213427     0.518253  Biso 1.000000     H
    H   1.0     0.138522     0.713417     0.518256  Biso 1.000000     H
    H   1.0     0.638524     0.213425     0.518257  Biso 1.000000     H
    H   1.0     0.638526     0.713417     0.518257  Biso 1.000000     H
    H   1.0     0.381586     0.226433     0.600837  Biso 1.000000     H
    H   1.0     0.381590     0.726425     0.600841  Biso 1.000000     H
    H   1.0     0.881590     0.226437     0.600840  Biso 1.000000     H
    H   1.0     0.881591     0.726430     0.600840  Biso 1.000000     H
    H   1.0     0.287834     0.425489     0.752243  Biso 1.000000     H
    H   1.0     0.287838     0.925486     0.752247  Biso 1.000000     H
    H   1.0     0.787835     0.425487     0.752247  Biso 1.000000     H
    H   1.0     0.787837     0.925484     0.752248  Biso 1.000000     H
    H   1.0     0.021892     0.444464     0.756176  Biso 1.000000     H
    H   1.0     0.021897     0.944457     0.756177  Biso 1.000000     H
    H   1.0     0.521897     0.444466     0.756180  Biso 1.000000     H
    H   1.0     0.521904     0.944458     0.756183  Biso 1.000000     H
    H   1.0     0.156399     0.207525     0.900656  Biso 1.000000     H
    H   1.0     0.156402     0.707513     0.900665  Biso 1.000000     H
    H   1.0     0.656404     0.207524     0.900658  Biso 1.000000     H
    H   1.0     0.656403     0.707513     0.900662  Biso 1.000000     H
    H   1.0     0.392709     0.232162     0.985169  Biso 1.000000     H
    H   1.0     0.392714     0.732148     0.985178  Biso 1.000000     H
    H   1.0     0.892719     0.232151     0.985180  Biso 1.000000     H
    H   1.0     0.892719     0.732140     0.985183  Biso 1.000000     H
    H   1.0     0.120926     0.036149     0.518222  Biso 1.000000     H
    H   1.0     0.120930     0.536144     0.518226  Biso 1.000000     H
    H   1.0     0.620933     0.036146     0.518225  Biso 1.000000     H
    H   1.0     0.620934     0.536143     0.518227  Biso 1.000000     H
    H   1.0     0.418444     0.024221     0.600649  Biso 1.000000     H
    H   1.0     0.418443     0.524216     0.600645  Biso 1.000000     H
    H   1.0     0.918442     0.024223     0.600645  Biso 1.000000     H
    H   1.0     0.918444     0.524217     0.600644  Biso 1.000000     H
    H   1.0     0.411510     0.175374     0.247279  Biso 1.000000     H
    H   1.0     0.411513     0.675366     0.247281  Biso 1.000000     H
    H   1.0     0.911511     0.175373     0.247278  Biso 1.000000     H
    H   1.0     0.911514     0.675365     0.247280  Biso 1.000000     H
    H   1.0     0.143734     0.194319     0.243735  Biso 1.000000     H
    H   1.0     0.143734     0.694316     0.243740  Biso 1.000000     H
    H   1.0     0.643737     0.194319     0.243732  Biso 1.000000     H
    H   1.0     0.643736     0.694317     0.243734  Biso 1.000000     H
    H   1.0     0.206097     0.457835     0.099471  Biso 1.000000     H
    H   1.0     0.206096     0.957832     0.099470  Biso 1.000000     H
    H   1.0     0.706097     0.457838     0.099472  Biso 1.000000     H
    H   1.0     0.706099     0.957833     0.099471  Biso 1.000000     H
    H   1.0     0.400028     0.482146     0.014363  Biso 1.000000     H
    H   1.0     0.400032     0.982145     0.014370  Biso 1.000000     H
    H   1.0     0.900031     0.482144     0.014361  Biso 1.000000     H
    H   1.0     0.900034     0.982136     0.014361  Biso 1.000000     H
    H   1.0     0.361370     0.286562     0.481457  Biso 1.000000     H
    H   1.0     0.361372     0.786556     0.481462  Biso 1.000000     H
    H   1.0     0.861373     0.286562     0.481457  Biso 1.000000     H
    H   1.0     0.861374     0.786555     0.481457  Biso 1.000000     H
    H   1.0     0.118310     0.273539     0.398861  Biso 1.000000     H
    H   1.0     0.118313     0.773533     0.398866  Biso 1.000000     H
    H   1.0     0.618316     0.273534     0.398863  Biso 1.000000     H
    H   1.0     0.618317     0.773526     0.398862  Biso 1.000000     H
    H   1.0     0.212166     0.074444     0.247661  Biso 1.000000     H
    H   1.0     0.212170     0.574441     0.247664  Biso 1.000000     H
    H   1.0     0.712170     0.074444     0.247660  Biso 1.000000     H
    H   1.0     0.712172     0.574442     0.247660  Biso 1.000000     H
    H   1.0     0.478088     0.055496     0.243707  Biso 1.000000     H
    H   1.0     0.478093     0.555489     0.243706  Biso 1.000000     H
    H   1.0     0.978087     0.055495     0.243701  Biso 1.000000     H
    H   1.0     0.978094     0.555488     0.243703  Biso 1.000000     H
    H   1.0     0.343568     0.292462     0.099081  Biso 1.000000     H
    H   1.0     0.343571     0.792452     0.099087  Biso 1.000000     H
    H   1.0     0.843572     0.292459     0.099085  Biso 1.000000     H
    H   1.0     0.843571     0.792451     0.099087  Biso 1.000000     H
    H   1.0     0.107247     0.267845     0.014555  Biso 1.000000     H
    H   1.0     0.107250     0.767834     0.014563  Biso 1.000000     H
    H   1.0     0.607247     0.267851     0.014551  Biso 1.000000     H
    H   1.0     0.607245     0.767843     0.014553  Biso 1.000000     H
    H   1.0     0.379078     0.463767     0.481583  Biso 1.000000     H
    H   1.0     0.379082     0.963762     0.481588  Biso 1.000000     H
    H   1.0     0.879081     0.463765     0.481583  Biso 1.000000     H
    H   1.0     0.879081     0.963763     0.481584  Biso 1.000000     H
    H   1.0     0.081579     0.475678     0.399172  Biso 1.000000     H
    H   1.0     0.081577     0.975674     0.399168  Biso 1.000000     H
    H   1.0     0.581581     0.475678     0.399172  Biso 1.000000     H
    H   1.0     0.581583     0.975671     0.399171  Biso 1.000000     H
    C   1.0     0.016266     0.237120     0.754193  Biso 1.000000     C
    C   1.0     0.016266     0.737115     0.754197  Biso 1.000000     C
    C   1.0     0.516269     0.237122     0.754188  Biso 1.000000     C
    C   1.0     0.516269     0.737117     0.754193  Biso 1.000000     C
    C   1.0     0.476191     0.308378     0.754321  Biso 1.000000     C
    C   1.0     0.476193     0.808372     0.754325  Biso 1.000000     C
    C   1.0     0.976191     0.308375     0.754322  Biso 1.000000     C
    C   1.0     0.976193     0.808370     0.754327  Biso 1.000000     C
    C   1.0     0.023032     0.347254     0.753578  Biso 1.000000     C
    C   1.0     0.023035     0.847247     0.753582  Biso 1.000000     C
    C   1.0     0.523037     0.347256     0.753580  Biso 1.000000     C
    C   1.0     0.523040     0.847249     0.753583  Biso 1.000000     C
    C   1.0     0.391569     0.336492     0.755046  Biso 1.000000     C
    C   1.0     0.391571     0.836488     0.755050  Biso 1.000000     C
    C   1.0     0.891570     0.336490     0.755048  Biso 1.000000     C
    C   1.0     0.891571     0.836486     0.755052  Biso 1.000000     C
    C   1.0     0.127652     0.068921     0.867838  Biso 1.000000     C
    C   1.0     0.127652     0.568916     0.867839  Biso 1.000000     C
    C   1.0     0.627651     0.068929     0.867843  Biso 1.000000     C
    C   1.0     0.627654     0.568919     0.867840  Biso 1.000000     C
    C   1.0     0.190674     0.033393     0.936129  Biso 1.000000     C
    C   1.0     0.190675     0.533388     0.936129  Biso 1.000000     C
    C   1.0     0.690674     0.033399     0.936131  Biso 1.000000     C
    C   1.0     0.690677     0.533391     0.936130  Biso 1.000000     C
    C   1.0     0.275282     0.023445     0.944137  Biso 1.000000     C
    C   1.0     0.275283     0.523439     0.944134  Biso 1.000000     C
    C   1.0     0.775283     0.023445     0.944135  Biso 1.000000     C
    C   1.0     0.775285     0.523440     0.944134  Biso 1.000000     C
    C   1.0     0.165736     0.009747     0.992343  Biso 1.000000     C
    C   1.0     0.165739     0.509742     0.992345  Biso 1.000000     C
    C   1.0     0.665736     0.009753     0.992347  Biso 1.000000     C
    C   1.0     0.665740     0.509745     0.992346  Biso 1.000000     C
    C   1.0     0.273420     0.180796     0.637735  Biso 1.000000     C
    C   1.0     0.273422     0.680791     0.637739  Biso 1.000000     C
    C   1.0     0.773425     0.180799     0.637740  Biso 1.000000     C
    C   1.0     0.773425     0.680793     0.637740  Biso 1.000000     C
    C   1.0     0.261189     0.216445     0.566420  Biso 1.000000     C
    C   1.0     0.261193     0.716438     0.566424  Biso 1.000000     C
    C   1.0     0.761194     0.216447     0.566425  Biso 1.000000     C
    C   1.0     0.761195     0.716440     0.566424  Biso 1.000000     C
    C   1.0     0.186816     0.229646     0.509545  Biso 1.000000     C
    C   1.0     0.186820     0.729638     0.509549  Biso 1.000000     C
    C   1.0     0.686822     0.229645     0.509548  Biso 1.000000     C
    C   1.0     0.686823     0.729637     0.509548  Biso 1.000000     C
    C   1.0     0.324212     0.236996     0.556287  Biso 1.000000     C
    C   1.0     0.324215     0.736989     0.556292  Biso 1.000000     C
    C   1.0     0.824216     0.236998     0.556290  Biso 1.000000     C
    C   1.0     0.824217     0.736991     0.556290  Biso 1.000000     C
    C   1.0     0.360820     0.012944     0.753913  Biso 1.000000     C
    C   1.0     0.360819     0.512939     0.753912  Biso 1.000000     C
    C   1.0     0.860819     0.012942     0.753912  Biso 1.000000     C
    C   1.0     0.860819     0.512937     0.753909  Biso 1.000000     C
    C   1.0     0.401035     0.441694     0.754164  Biso 1.000000     C
    C   1.0     0.401040     0.941689     0.754168  Biso 1.000000     C
    C   1.0     0.901035     0.441692     0.754165  Biso 1.000000     C
    C   1.0     0.901039     0.941687     0.754167  Biso 1.000000     C
    C   1.0     0.353815     0.402818     0.753398  Biso 1.000000     C
    C   1.0     0.353819     0.902814     0.753403  Biso 1.000000     C
    C   1.0     0.853815     0.402816     0.753400  Biso 1.000000     C
    C   1.0     0.853818     0.902812     0.753403  Biso 1.000000     C
    C   1.0     0.486061     0.413586     0.755066  Biso 1.000000     C
    C   1.0     0.486066     0.913580     0.755070  Biso 1.000000     C
    C   1.0     0.986060     0.413584     0.755063  Biso 1.000000     C
    C   1.0     0.986065     0.913578     0.755066  Biso 1.000000     C
    C   1.0     0.306296     0.180791     0.867970  Biso 1.000000     C
    C   1.0     0.306299     0.680780     0.867977  Biso 1.000000     C
    C   1.0     0.806304     0.180783     0.867977  Biso 1.000000     C
    C   1.0     0.806303     0.680774     0.867980  Biso 1.000000     C
    C   1.0     0.277415     0.216443     0.936192  Biso 1.000000     C
    C   1.0     0.277420     0.716429     0.936201  Biso 1.000000     C
    C   1.0     0.777423     0.216436     0.936198  Biso 1.000000     C
    C   1.0     0.777423     0.716426     0.936202  Biso 1.000000     C
    C   1.0     0.196854     0.226371     0.944314  Biso 1.000000     C
    C   1.0     0.196858     0.726359     0.944323  Biso 1.000000     C
    C   1.0     0.696859     0.226370     0.944316  Biso 1.000000     C
    C   1.0     0.696859     0.726360     0.944319  Biso 1.000000     C
    C   1.0     0.330409     0.240255     0.992197  Biso 1.000000     C
    C   1.0     0.330414     0.740242     0.992206  Biso 1.000000     C
    C   1.0     0.830417     0.240248     0.992205  Biso 1.000000     C
    C   1.0     0.830417     0.740238     0.992208  Biso 1.000000     C
    C   1.0     0.045420     0.069389     0.637554  Biso 1.000000     C
    C   1.0     0.045421     0.569385     0.637555  Biso 1.000000     C
    C   1.0     0.545426     0.069388     0.637557  Biso 1.000000     C
    C   1.0     0.545423     0.569384     0.637556  Biso 1.000000     C
    C   1.0     0.021994     0.033670     0.566320  Biso 1.000000     C
    C   1.0     0.021996     0.533666     0.566321  Biso 1.000000     C
    C   1.0     0.522000     0.033669     0.566323  Biso 1.000000     C
    C   1.0     0.521999     0.533665     0.566322  Biso 1.000000     C
    C   1.0     0.068144     0.020094     0.509561  Biso 1.000000     C
    C   1.0     0.068149     0.520089     0.509564  Biso 1.000000     C
    C   1.0     0.568150     0.020092     0.509564  Biso 1.000000     C
    C   1.0     0.568151     0.520088     0.509564  Biso 1.000000     C
    C   1.0     0.453726     0.013346     0.556204  Biso 1.000000     C
    C   1.0     0.453726     0.513341     0.556201  Biso 1.000000     C
    C   1.0     0.953725     0.013348     0.556201  Biso 1.000000     C
    C   1.0     0.953728     0.513342     0.556201  Biso 1.000000     C
    C   1.0     0.483746     0.262825     0.245578  Biso 1.000000     C
    C   1.0     0.483745     0.762820     0.245580  Biso 1.000000     C
    C   1.0     0.983747     0.262825     0.245580  Biso 1.000000     C
    C   1.0     0.983747     0.762819     0.245586  Biso 1.000000     C
    C   1.0     0.023809     0.191569     0.245523  Biso 1.000000     C
    C   1.0     0.023811     0.691564     0.245526  Biso 1.000000     C
    C   1.0     0.523813     0.191570     0.245522  Biso 1.000000     C
    C   1.0     0.523813     0.691565     0.245523  Biso 1.000000     C
    C   1.0     0.476958     0.152703     0.246282  Biso 1.000000     C
    C   1.0     0.476960     0.652697     0.246283  Biso 1.000000     C
    C   1.0     0.976958     0.152703     0.246281  Biso 1.000000     C
    C   1.0     0.976961     0.652696     0.246283  Biso 1.000000     C
    C   1.0     0.108438     0.163449     0.244829  Biso 1.000000     C
    C   1.0     0.108439     0.663445     0.244833  Biso 1.000000     C
    C   1.0     0.608441     0.163450     0.244828  Biso 1.000000     C
    C   1.0     0.608442     0.663446     0.244829  Biso 1.000000     C
    C   1.0     0.372322     0.431047     0.131927  Biso 1.000000     C
    C   1.0     0.372321     0.931044     0.131931  Biso 1.000000     C
    C   1.0     0.872323     0.431046     0.131925  Biso 1.000000     C
    C   1.0     0.872325     0.931036     0.131923  Biso 1.000000     C
    C   1.0     0.309295     0.466597     0.063655  Biso 1.000000     C
    C   1.0     0.309295     0.966594     0.063659  Biso 1.000000     C
    C   1.0     0.809296     0.466597     0.063655  Biso 1.000000     C
    C   1.0     0.809299     0.966590     0.063654  Biso 1.000000     C
    C   1.0     0.224686     0.476550     0.055655  Biso 1.000000     C
    C   1.0     0.224687     0.976546     0.055655  Biso 1.000000     C
    C   1.0     0.724687     0.476552     0.055655  Biso 1.000000     C
    C   1.0     0.724689     0.976548     0.055655  Biso 1.000000     C
    C   1.0     0.334230     0.490250     0.007446  Biso 1.000000     C
    C   1.0     0.334233     0.990247     0.007450  Biso 1.000000     C
    C   1.0     0.834232     0.490249     0.007445  Biso 1.000000     C
    C   1.0     0.834235     0.990243     0.007445  Biso 1.000000     C
    C   1.0     0.226547     0.319113     0.361934  Biso 1.000000     C
    C   1.0     0.226548     0.819110     0.361942  Biso 1.000000     C
    C   1.0     0.726551     0.319110     0.361934  Biso 1.000000     C
    C   1.0     0.726551     0.819103     0.361934  Biso 1.000000     C
    C   1.0     0.238717     0.283513     0.433269  Biso 1.000000     C
    C   1.0     0.238720     0.783507     0.433275  Biso 1.000000     C
    C   1.0     0.738721     0.283512     0.433271  Biso 1.000000     C
    C   1.0     0.738723     0.783503     0.433270  Biso 1.000000     C
    C   1.0     0.313077     0.270333     0.490160  Biso 1.000000     C
    C   1.0     0.313081     0.770326     0.490164  Biso 1.000000     C
    C   1.0     0.813081     0.270333     0.490161  Biso 1.000000     C
    C   1.0     0.813083     0.770326     0.490160  Biso 1.000000     C
    C   1.0     0.175685     0.262977     0.443411  Biso 1.000000     C
    C   1.0     0.175689     0.762970     0.443415  Biso 1.000000     C
    C   1.0     0.675690     0.262975     0.443413  Biso 1.000000     C
    C   1.0     0.675692     0.762967     0.443412  Biso 1.000000     C
    C   1.0     0.139173     0.487012     0.245942  Biso 1.000000     C
    C   1.0     0.139172     0.987006     0.245941  Biso 1.000000     C
    C   1.0     0.639176     0.487013     0.245944  Biso 1.000000     C
    C   1.0     0.639177     0.987007     0.245944  Biso 1.000000     C
    C   1.0     0.098951     0.058258     0.245720  Biso 1.000000     C
    C   1.0     0.098957     0.558253     0.245723  Biso 1.000000     C
    C   1.0     0.598956     0.058259     0.245724  Biso 1.000000     C
    C   1.0     0.598960     0.558254     0.245722  Biso 1.000000     C
    C   1.0     0.146184     0.097125     0.246495  Biso 1.000000     C
    C   1.0     0.146188     0.597121     0.246498  Biso 1.000000     C
    C   1.0     0.646188     0.097125     0.246495  Biso 1.000000     C
    C   1.0     0.646191     0.597122     0.246496  Biso 1.000000     C
    C   1.0     0.013925     0.086371     0.244818  Biso 1.000000     C
    C   1.0     0.013931     0.586364     0.244820  Biso 1.000000     C
    C   1.0     0.513930     0.086372     0.244821  Biso 1.000000     C
    C   1.0     0.513934     0.586365     0.244821  Biso 1.000000     C
    C   1.0     0.193629     0.319257     0.131720  Biso 1.000000     C
    C   1.0     0.193633     0.819245     0.131728  Biso 1.000000     C
    C   1.0     0.693629     0.319260     0.131718  Biso 1.000000     C
    C   1.0     0.693627     0.819254     0.131719  Biso 1.000000     C
    C   1.0     0.222535     0.283570     0.063525  Biso 1.000000     C
    C   1.0     0.222539     0.783559     0.063533  Biso 1.000000     C
    C   1.0     0.722538     0.283571     0.063526  Biso 1.000000     C
    C   1.0     0.722535     0.783565     0.063526  Biso 1.000000     C
    C   1.0     0.303106     0.273626     0.055416  Biso 1.000000     C
    C   1.0     0.303110     0.773614     0.055424  Biso 1.000000     C
    C   1.0     0.803111     0.273622     0.055421  Biso 1.000000     C
    C   1.0     0.803110     0.773614     0.055423  Biso 1.000000     C
    C   1.0     0.169547     0.259749     0.007527  Biso 1.000000     C
    C   1.0     0.169551     0.759737     0.007535  Biso 1.000000     C
    C   1.0     0.669549     0.259751     0.007526  Biso 1.000000     C
    C   1.0     0.669548     0.759743     0.007528  Biso 1.000000     C
    C   1.0     0.454574     0.430502     0.362276  Biso 1.000000     C
    C   1.0     0.454575     0.930495     0.362279  Biso 1.000000     C
    C   1.0     0.954575     0.430503     0.362275  Biso 1.000000     C
    C   1.0     0.954572     0.930501     0.362273  Biso 1.000000     C
    C   1.0     0.478021     0.466231     0.433495  Biso 1.000000     C
    C   1.0     0.478025     0.966225     0.433497  Biso 1.000000     C
    C   1.0     0.978024     0.466231     0.433495  Biso 1.000000     C
    C   1.0     0.978023     0.966227     0.433493  Biso 1.000000     C
    C   1.0     0.431866     0.479814     0.490250  Biso 1.000000     C
    C   1.0     0.431870     0.979809     0.490253  Biso 1.000000     C
    C   1.0     0.931869     0.479814     0.490250  Biso 1.000000     C
    C   1.0     0.931869     0.979811     0.490250  Biso 1.000000     C
    C   1.0     0.046293     0.486554     0.443614  Biso 1.000000     C
    C   1.0     0.046292     0.986550     0.443611  Biso 1.000000     C
    C   1.0     0.546296     0.486554     0.443614  Biso 1.000000     C
    C   1.0     0.546299     0.986547     0.443615  Biso 1.000000     C
    O   1.0     0.084875     0.213549     0.733419  Biso 1.000000     O
    O   1.0     0.084873     0.713543     0.733421  Biso 1.000000     O
    O   1.0     0.584877     0.213552     0.733413  Biso 1.000000     O
    O   1.0     0.584877     0.713545     0.733418  Biso 1.000000     O
    O   1.0     0.479567     0.204136     0.775123  Biso 1.000000     O
    O   1.0     0.479567     0.704131     0.775130  Biso 1.000000     O
    O   1.0     0.979572     0.204134     0.775133  Biso 1.000000     O
    O   1.0     0.979569     0.704129     0.775136  Biso 1.000000     O
    O   1.0     0.153612     0.087665     0.817251  Biso 1.000000     O
    O   1.0     0.153610     0.587658     0.817250  Biso 1.000000     O
    O   1.0     0.653610     0.087672     0.817255  Biso 1.000000     O
    O   1.0     0.653612     0.587660     0.817251  Biso 1.000000     O
    O   1.0     0.051102     0.078827     0.863104  Biso 1.000000     O
    O   1.0     0.051102     0.578819     0.863104  Biso 1.000000     O
    O   1.0     0.551101     0.078834     0.863107  Biso 1.000000     O
    O   1.0     0.551103     0.578825     0.863106  Biso 1.000000     O
    O   1.0     0.215564     0.161763     0.644229  Biso 1.000000     O
    O   1.0     0.215565     0.661759     0.644233  Biso 1.000000     O
    O   1.0     0.715570     0.161764     0.644233  Biso 1.000000     O
    O   1.0     0.715569     0.661760     0.644233  Biso 1.000000     O
    O   1.0     0.341071     0.171711     0.688322  Biso 1.000000     O
    O   1.0     0.341070     0.671710     0.688330  Biso 1.000000     O
    O   1.0     0.841073     0.171719     0.688330  Biso 1.000000     O
    O   1.0     0.841072     0.671713     0.688331  Biso 1.000000     O
    O   1.0     0.281831     0.036453     0.733081  Biso 1.000000     O
    O   1.0     0.281830     0.536447     0.733084  Biso 1.000000     O
    O   1.0     0.781830     0.036452     0.733087  Biso 1.000000     O
    O   1.0     0.781830     0.536446     0.733079  Biso 1.000000     O
    O   1.0     0.407912     0.045978     0.774821  Biso 1.000000     O
    O   1.0     0.407911     0.545973     0.774818  Biso 1.000000     O
    O   1.0     0.907912     0.045976     0.774811  Biso 1.000000     O
    O   1.0     0.907911     0.545971     0.774811  Biso 1.000000     O
    O   1.0     0.255066     0.161935     0.817546  Biso 1.000000     O
    O   1.0     0.255065     0.661930     0.817550  Biso 1.000000     O
    O   1.0     0.755069     0.161935     0.817548  Biso 1.000000     O
    O   1.0     0.755068     0.661929     0.817548  Biso 1.000000     O
    O   1.0     0.380436     0.170925     0.863134  Biso 1.000000     O
    O   1.0     0.380439     0.670912     0.863141  Biso 1.000000     O
    O   1.0     0.880448     0.170909     0.863146  Biso 1.000000     O
    O   1.0     0.880446     0.670902     0.863147  Biso 1.000000     O
    O   1.0     0.106579     0.088347     0.644023  Biso 1.000000     O
    O   1.0     0.106581     0.588343     0.644024  Biso 1.000000     O
    O   1.0     0.606583     0.088347     0.644024  Biso 1.000000     O
    O   1.0     0.606581     0.588344     0.644023  Biso 1.000000     O
    O   1.0     0.003057     0.078548     0.688168  Biso 1.000000     O
    O   1.0     0.003057     0.578544     0.688168  Biso 1.000000     O
    O   1.0     0.503064     0.078545     0.688172  Biso 1.000000     O
    O   1.0     0.503060     0.578543     0.688169  Biso 1.000000     O
    O   1.0     0.415152     0.286436     0.266370  Biso 1.000000     O
    O   1.0     0.415151     0.786430     0.266373  Biso 1.000000     O
    O   1.0     0.915152     0.286435     0.266371  Biso 1.000000     O
    O   1.0     0.915151     0.786428     0.266376  Biso 1.000000     O
    O   1.0     0.020454     0.295767     0.224569  Biso 1.000000     O
    O   1.0     0.020453     0.795763     0.224578  Biso 1.000000     O
    O   1.0     0.520456     0.295767     0.224564  Biso 1.000000     O
    O   1.0     0.520453     0.795762     0.224565  Biso 1.000000     O
    O   1.0     0.346377     0.412220     0.182457  Biso 1.000000     O
    O   1.0     0.346374     0.912216     0.182459  Biso 1.000000     O
    O   1.0     0.846378     0.412219     0.182455  Biso 1.000000     O
    O   1.0     0.846380     0.912207     0.182451  Biso 1.000000     O
    O   1.0     0.448865     0.421198     0.136705  Biso 1.000000     O
    O   1.0     0.448865     0.921192     0.136708  Biso 1.000000     O
    O   1.0     0.948867     0.421195     0.136702  Biso 1.000000     O
    O   1.0     0.948869     0.921185     0.136701  Biso 1.000000     O
    O   1.0     0.284400     0.338175     0.355504  Biso 1.000000     O
    O   1.0     0.284402     0.838168     0.355508  Biso 1.000000     O
    O   1.0     0.784403     0.338173     0.355503  Biso 1.000000     O
    O   1.0     0.784402     0.838168     0.355504  Biso 1.000000     O
    O   1.0     0.158976     0.328117     0.311256  Biso 1.000000     O
    O   1.0     0.158972     0.828118     0.311267  Biso 1.000000     O
    O   1.0     0.658981     0.328111     0.311253  Biso 1.000000     O
    O   1.0     0.658981     0.828105     0.311254  Biso 1.000000     O
    O   1.0     0.218174     0.463511     0.266596  Biso 1.000000     O
    O   1.0     0.218172     0.963504     0.266602  Biso 1.000000     O
    O   1.0     0.718177     0.463512     0.266598  Biso 1.000000     O
    O   1.0     0.718178     0.963505     0.266593  Biso 1.000000     O
    O   1.0     0.092074     0.453975     0.225165  Biso 1.000000     O
    O   1.0     0.092073     0.953970     0.225161  Biso 1.000000     O
    O   1.0     0.592077     0.453976     0.225172  Biso 1.000000     O
    O   1.0     0.592077     0.953971     0.225173  Biso 1.000000     O
    O   1.0     0.244889     0.338041     0.182195  Biso 1.000000     O
    O   1.0     0.244891     0.838034     0.182200  Biso 1.000000     O
    O   1.0     0.744890     0.338042     0.182196  Biso 1.000000     O
    O   1.0     0.744890     0.838033     0.182198  Biso 1.000000     O
    O   1.0     0.119435     0.329228     0.136477  Biso 1.000000     O
    O   1.0     0.119442     0.829209     0.136491  Biso 1.000000     O
    O   1.0     0.619433     0.329235     0.136472  Biso 1.000000     O
    O   1.0     0.619432     0.829227     0.136475  Biso 1.000000     O
    O   1.0     0.393336     0.411635     0.355808  Biso 1.000000     O
    O   1.0     0.393337     0.911630     0.355810  Biso 1.000000     O
    O   1.0     0.893339     0.411635     0.355807  Biso 1.000000     O
    O   1.0     0.893337     0.911632     0.355806  Biso 1.000000     O
    O   1.0     0.496987     0.421235     0.311686  Biso 1.000000     O
    O   1.0     0.496987     0.921230     0.311687  Biso 1.000000     O
    O   1.0     0.996984     0.421240     0.311682  Biso 1.000000     O
    O   1.0     0.996978     0.921242     0.311678  Biso 1.000000     O
   Sc   1.0     0.182844     0.124972     0.731367  Biso 1.000000    Sc
   Sc   1.0     0.182843     0.624967     0.731369  Biso 1.000000    Sc
   Sc   1.0     0.682846     0.124973     0.731369  Biso 1.000000    Sc
   Sc   1.0     0.682846     0.624967     0.731367  Biso 1.000000    Sc
   Sc   1.0     0.317138     0.374978     0.268386  Biso 1.000000    Sc
   Sc   1.0     0.317139     0.874973     0.268389  Biso 1.000000    Sc
   Sc   1.0     0.817140     0.374978     0.268386  Biso 1.000000    Sc
   Sc   1.0     0.817140     0.874972     0.268385  Biso 1.000000    Sc
   Sc   1.0     0.443849     0.125023     0.775275  Biso 1.000000    Sc
   Sc   1.0     0.443850     0.625018     0.775278  Biso 1.000000    Sc
   Sc   1.0     0.943853     0.125021     0.775277  Biso 1.000000    Sc
   Sc   1.0     0.943852     0.625015     0.775278  Biso 1.000000    Sc
   Sc   1.0     0.056119     0.374921     0.224471  Biso 1.000000    Sc
   Sc   1.0     0.056120     0.874915     0.224474  Biso 1.000000    Sc
   Sc   1.0     0.556123     0.374921     0.224471  Biso 1.000000    Sc
   Sc   1.0     0.556123     0.874915     0.224473  Biso 1.000000    Sc
