#======================================================================

# CRYSTAL DATA

#----------------------------------------------------------------------

data_VESTA_phase_1


_pd_phase_name                         MOF
_cell_length_a                         17.75300
_cell_length_b                         22.71400
_cell_length_c                         17.90100
_cell_angle_alpha                      84.51200
_cell_angle_beta                       75.72400
_cell_angle_gamma                      67.20900
_symmetry_space_group_name_H-M         "P 1"
_symmetry_Int_Tables_number            1

loop_
_symmetry_equiv_pos_as_xyz
   "x, y, z"

loop_
   _atom_site_label
   _atom_site_occupancy
   _atom_site_fract_x
   _atom_site_fract_y
   _atom_site_fract_z
   _atom_site_adp_type
   _atom_site_B_iso_or_equiv
   _atom_site_type_symbol
    H   1.0     0.105872     0.274699     0.982906  Biso 1.000000     H
    H   1.0     0.105868     0.774693     0.982908  Biso 1.000000     H
    H   1.0     0.605870     0.274702     0.982907  Biso 1.000000     H
    H   1.0     0.605867     0.774694     0.982908  Biso 1.000000     H
    H   1.0     0.348910     0.285687     0.900757  Biso 1.000000     H
    H   1.0     0.348907     0.785680     0.900758  Biso 1.000000     H
    H   1.0     0.848909     0.285689     0.900757  Biso 1.000000     H
    H   1.0     0.848905     0.785681     0.900760  Biso 1.000000     H
    H   1.0     0.411694     0.184749     0.747890  Biso 1.000000     H
    H   1.0     0.411692     0.684739     0.747895  Biso 1.000000     H
    H   1.0     0.911693     0.184749     0.747895  Biso 1.000000     H
    H   1.0     0.911691     0.684739     0.747887  Biso 1.000000     H
    H   1.0     0.402516     0.475602     0.983257  Biso 1.000000     H
    H   1.0     0.402514     0.975593     0.983257  Biso 1.000000     H
    H   1.0     0.902515     0.475602     0.983259  Biso 1.000000     H
    H   1.0     0.902512     0.975590     0.983258  Biso 1.000000     H
    H   1.0     0.200979     0.464235     0.900393  Biso 1.000000     H
    H   1.0     0.200978     0.964226     0.900391  Biso 1.000000     H
    H   1.0     0.700978     0.464234     0.900394  Biso 1.000000     H
    H   1.0     0.700974     0.964224     0.900395  Biso 1.000000     H
    H   1.0     0.213405     0.066610     0.748462  Biso 1.000000     H
    H   1.0     0.213404     0.566599     0.748456  Biso 1.000000     H
    H   1.0     0.713406     0.066609     0.748453  Biso 1.000000     H
    H   1.0     0.713403     0.566599     0.748461  Biso 1.000000     H
    H   1.0     0.368410     0.275954     0.517883  Biso 1.000000     H
    H   1.0     0.368409     0.775942     0.517884  Biso 1.000000     H
    H   1.0     0.868413     0.275950     0.517885  Biso 1.000000     H
    H   1.0     0.868409     0.775943     0.517882  Biso 1.000000     H
    H   1.0     0.115265     0.284868     0.598701  Biso 1.000000     H
    H   1.0     0.115265     0.784855     0.598703  Biso 1.000000     H
    H   1.0     0.615269     0.284863     0.598703  Biso 1.000000     H
    H   1.0     0.615264     0.784858     0.598700  Biso 1.000000     H
    H   1.0     0.151723     0.186629     0.752126  Biso 1.000000     H
    H   1.0     0.151722     0.686619     0.752118  Biso 1.000000     H
    H   1.0     0.651724     0.186629     0.752120  Biso 1.000000     H
    H   1.0     0.651721     0.686619     0.752125  Biso 1.000000     H
    H   1.0     0.372087     0.474842     0.517835  Biso 1.000000     H
    H   1.0     0.372084     0.974834     0.517836  Biso 1.000000     H
    H   1.0     0.872084     0.474845     0.517837  Biso 1.000000     H
    H   1.0     0.872079     0.974838     0.517838  Biso 1.000000     H
    H   1.0     0.084773     0.465492     0.599427  Biso 1.000000     H
    H   1.0     0.084769     0.965484     0.599428  Biso 1.000000     H
    H   1.0     0.584775     0.465489     0.599425  Biso 1.000000     H
    H   1.0     0.584771     0.965480     0.599426  Biso 1.000000     H
    H   1.0     0.471398     0.064733     0.752073  Biso 1.000000     H
    H   1.0     0.471395     0.564723     0.752079  Biso 1.000000     H
    H   1.0     0.971397     0.064733     0.752078  Biso 1.000000     H
    H   1.0     0.971395     0.564723     0.752074  Biso 1.000000     H
    H   1.0     0.394131     0.225279     0.017096  Biso 1.000000     H
    H   1.0     0.394127     0.725273     0.017099  Biso 1.000000     H
    H   1.0     0.894130     0.225281     0.017097  Biso 1.000000     H
    H   1.0     0.894126     0.725273     0.017099  Biso 1.000000     H
    H   1.0     0.151093     0.214292     0.099245  Biso 1.000000     H
    H   1.0     0.151089     0.714286     0.099248  Biso 1.000000     H
    H   1.0     0.651091     0.214294     0.099247  Biso 1.000000     H
    H   1.0     0.651088     0.714286     0.099247  Biso 1.000000     H
    H   1.0     0.088306     0.315234     0.252118  Biso 1.000000     H
    H   1.0     0.088304     0.815224     0.252116  Biso 1.000000     H
    H   1.0     0.588306     0.315235     0.252112  Biso 1.000000     H
    H   1.0     0.588305     0.815225     0.252112  Biso 1.000000     H
    H   1.0     0.097486     0.024384     0.016745  Biso 1.000000     H
    H   1.0     0.097483     0.524373     0.016746  Biso 1.000000     H
    H   1.0     0.597484     0.024383     0.016748  Biso 1.000000     H
    H   1.0     0.597482     0.524372     0.016748  Biso 1.000000     H
    H   1.0     0.299022     0.035752     0.099610  Biso 1.000000     H
    H   1.0     0.299020     0.535740     0.099611  Biso 1.000000     H
    H   1.0     0.799021     0.035749     0.099611  Biso 1.000000     H
    H   1.0     0.799019     0.535739     0.099612  Biso 1.000000     H
    H   1.0     0.286595     0.433375     0.251546  Biso 1.000000     H
    H   1.0     0.286594     0.933364     0.251545  Biso 1.000000     H
    H   1.0     0.786593     0.433375     0.251551  Biso 1.000000     H
    H   1.0     0.786591     0.933365     0.251549  Biso 1.000000     H
    H   1.0     0.131588     0.224033     0.482121  Biso 1.000000     H
    H   1.0     0.131587     0.724020     0.482123  Biso 1.000000     H
    H   1.0     0.631591     0.224029     0.482123  Biso 1.000000     H
    H   1.0     0.631585     0.724024     0.482120  Biso 1.000000     H
    H   1.0     0.384733     0.215118     0.401304  Biso 1.000000     H
    H   1.0     0.384731     0.715107     0.401304  Biso 1.000000     H
    H   1.0     0.884735     0.215116     0.401305  Biso 1.000000     H
    H   1.0     0.884730     0.715109     0.401302  Biso 1.000000     H
    H   1.0     0.348277     0.313355     0.247882  Biso 1.000000     H
    H   1.0     0.348276     0.813345     0.247882  Biso 1.000000     H
    H   1.0     0.848275     0.313355     0.247887  Biso 1.000000     H
    H   1.0     0.848273     0.813345     0.247886  Biso 1.000000     H
    H   1.0     0.127913     0.025143     0.482170  Biso 1.000000     H
    H   1.0     0.127912     0.525130     0.482169  Biso 1.000000     H
    H   1.0     0.627914     0.025140     0.482170  Biso 1.000000     H
    H   1.0     0.627913     0.525128     0.482168  Biso 1.000000     H
    H   1.0     0.415228     0.034493     0.400579  Biso 1.000000     H
    H   1.0     0.415225     0.534482     0.400578  Biso 1.000000     H
    H   1.0     0.915224     0.034496     0.400580  Biso 1.000000     H
    H   1.0     0.915223     0.534483     0.400579  Biso 1.000000     H
    H   1.0     0.028603     0.435250     0.247933  Biso 1.000000     H
    H   1.0     0.028601     0.935240     0.247931  Biso 1.000000     H
    H   1.0     0.528603     0.435251     0.247928  Biso 1.000000     H
    H   1.0     0.528601     0.935241     0.247927  Biso 1.000000     H
    C   1.0     0.477301     0.158332     0.749177  Biso 1.000000     C
    C   1.0     0.477298     0.658322     0.749182  Biso 1.000000     C
    C   1.0     0.977299     0.158332     0.749182  Biso 1.000000     C
    C   1.0     0.977299     0.658322     0.749171  Biso 1.000000     C
    C   1.0     0.224742     0.283648     0.935006  Biso 1.000000     C
    C   1.0     0.224737     0.783642     0.935008  Biso 1.000000     C
    C   1.0     0.724740     0.283649     0.935006  Biso 1.000000     C
    C   1.0     0.724738     0.783639     0.935006  Biso 1.000000     C
    C   1.0     0.198148     0.319349     0.865343  Biso 1.000000     C
    C   1.0     0.198145     0.819341     0.865345  Biso 1.000000     C
    C   1.0     0.698146     0.319352     0.865345  Biso 1.000000     C
    C   1.0     0.698142     0.819347     0.865348  Biso 1.000000     C
    C   1.0     0.306119     0.269790     0.944465  Biso 1.000000     C
    C   1.0     0.306116     0.769782     0.944466  Biso 1.000000     C
    C   1.0     0.806117     0.269792     0.944466  Biso 1.000000     C
    C   1.0     0.806114     0.769785     0.944469  Biso 1.000000     C
    C   1.0     0.168766     0.263614     0.990991  Biso 1.000000     C
    C   1.0     0.168762     0.763606     0.990992  Biso 1.000000     C
    C   1.0     0.668764     0.263616     0.990992  Biso 1.000000     C
    C   1.0     0.668760     0.763609     0.990993  Biso 1.000000     C
    C   1.0     0.147214     0.093012     0.749500  Biso 1.000000     C
    C   1.0     0.147212     0.593002     0.749499  Biso 1.000000     C
    C   1.0     0.647215     0.093012     0.749492  Biso 1.000000     C
    C   1.0     0.647212     0.593001     0.749500  Biso 1.000000     C
    C   1.0     0.307783     0.466509     0.935052  Biso 1.000000     C
    C   1.0     0.307782     0.966496     0.935054  Biso 1.000000     C
    C   1.0     0.807781     0.466508     0.935054  Biso 1.000000     C
    C   1.0     0.807778     0.966501     0.935050  Biso 1.000000     C
    C   1.0     0.369248     0.430882     0.865516  Biso 1.000000     C
    C   1.0     0.369246     0.930877     0.865512  Biso 1.000000     C
    C   1.0     0.869247     0.430881     0.865517  Biso 1.000000     C
    C   1.0     0.869244     0.930867     0.865518  Biso 1.000000     C
    C   1.0     0.221794     0.480129     0.944280  Biso 1.000000     C
    C   1.0     0.221792     0.980123     0.944277  Biso 1.000000     C
    C   1.0     0.721792     0.480130     0.944280  Biso 1.000000     C
    C   1.0     0.721790     0.980117     0.944282  Biso 1.000000     C
    C   1.0     0.335652     0.486541     0.991224  Biso 1.000000     C
    C   1.0     0.335650     0.986534     0.991222  Biso 1.000000     C
    C   1.0     0.835651     0.486541     0.991225  Biso 1.000000     C
    C   1.0     0.835649     0.986528     0.991226  Biso 1.000000     C
    C   1.0     0.113223     0.159415     0.750981  Biso 1.000000     C
    C   1.0     0.113223     0.659405     0.750969  Biso 1.000000     C
    C   1.0     0.613223     0.159415     0.750975  Biso 1.000000     C
    C   1.0     0.613221     0.659404     0.750980  Biso 1.000000     C
    C   1.0     0.240950     0.283877     0.565114  Biso 1.000000     C
    C   1.0     0.240950     0.783863     0.565116  Biso 1.000000     C
    C   1.0     0.740952     0.283874     0.565115  Biso 1.000000     C
    C   1.0     0.740947     0.783869     0.565111  Biso 1.000000     C
    C   1.0     0.231082     0.319893     0.634863  Biso 1.000000     C
    C   1.0     0.231080     0.819882     0.634863  Biso 1.000000     C
    C   1.0     0.731086     0.319886     0.634866  Biso 1.000000     C
    C   1.0     0.731082     0.819879     0.634863  Biso 1.000000     C
    C   1.0     0.173992     0.269344     0.555196  Biso 1.000000     C
    C   1.0     0.173991     0.769333     0.555197  Biso 1.000000     C
    C   1.0     0.673996     0.269340     0.555198  Biso 1.000000     C
    C   1.0     0.673991     0.769333     0.555196  Biso 1.000000     C
    C   1.0     0.317031     0.264358     0.509440  Biso 1.000000     C
    C   1.0     0.317029     0.764348     0.509440  Biso 1.000000     C
    C   1.0     0.817034     0.264354     0.509442  Biso 1.000000     C
    C   1.0     0.817030     0.764346     0.509440  Biso 1.000000     C
    C   1.0     0.010480     0.091934     0.750939  Biso 1.000000     C
    C   1.0     0.010478     0.591924     0.750938  Biso 1.000000     C
    C   1.0     0.510481     0.091934     0.750933  Biso 1.000000     C
    C   1.0     0.510477     0.591924     0.750939  Biso 1.000000     C
    C   1.0     0.475841     0.466780     0.565412  Biso 1.000000     C
    C   1.0     0.475835     0.966776     0.565415  Biso 1.000000     C
    C   1.0     0.975840     0.466781     0.565412  Biso 1.000000     C
    C   1.0     0.975839     0.966769     0.565410  Biso 1.000000     C
    C   1.0     0.450096     0.431445     0.635425  Biso 1.000000     C
    C   1.0     0.450097     0.931432     0.635423  Biso 1.000000     C
    C   1.0     0.950091     0.431451     0.635429  Biso 1.000000     C
    C   1.0     0.950083     0.931448     0.635432  Biso 1.000000     C
    C   1.0     0.048065     0.480848     0.555619  Biso 1.000000     C
    C   1.0     0.048059     0.980842     0.555621  Biso 1.000000     C
    C   1.0     0.548066     0.480844     0.555617  Biso 1.000000     C
    C   1.0     0.548065     0.980833     0.555616  Biso 1.000000     C
    C   1.0     0.427918     0.486108     0.509372  Biso 1.000000     C
    C   1.0     0.427918     0.986096     0.509371  Biso 1.000000     C
    C   1.0     0.927915     0.486111     0.509374  Biso 1.000000     C
    C   1.0     0.927909     0.986106     0.509376  Biso 1.000000     C
    C   1.0     0.022699     0.341652     0.250832  Biso 1.000000     C
    C   1.0     0.022697     0.841642     0.250829  Biso 1.000000     C
    C   1.0     0.522699     0.341652     0.250827  Biso 1.000000     C
    C   1.0     0.522698     0.841642     0.250825  Biso 1.000000     C
    C   1.0     0.275260     0.216335     0.064999  Biso 1.000000     C
    C   1.0     0.275259     0.716323     0.064997  Biso 1.000000     C
    C   1.0     0.775259     0.216335     0.064998  Biso 1.000000     C
    C   1.0     0.775256     0.716326     0.064999  Biso 1.000000     C
    C   1.0     0.301857     0.180626     0.134656  Biso 1.000000     C
    C   1.0     0.301850     0.680626     0.134663  Biso 1.000000     C
    C   1.0     0.801854     0.180630     0.134658  Biso 1.000000     C
    C   1.0     0.801851     0.680621     0.134660  Biso 1.000000     C
    C   1.0     0.193885     0.230188     0.055536  Biso 1.000000     C
    C   1.0     0.193879     0.730184     0.055540  Biso 1.000000     C
    C   1.0     0.693883     0.230191     0.055538  Biso 1.000000     C
    C   1.0     0.693880     0.730182     0.055538  Biso 1.000000     C
    C   1.0     0.331238     0.236364     0.009011  Biso 1.000000     C
    C   1.0     0.331233     0.736360     0.009015  Biso 1.000000     C
    C   1.0     0.831236     0.236367     0.009012  Biso 1.000000     C
    C   1.0     0.831233     0.736358     0.009013  Biso 1.000000     C
    C   1.0     0.352787     0.406973     0.250506  Biso 1.000000     C
    C   1.0     0.352785     0.906962     0.250506  Biso 1.000000     C
    C   1.0     0.852784     0.406972     0.250511  Biso 1.000000     C
    C   1.0     0.852782     0.906962     0.250510  Biso 1.000000     C
    C   1.0     0.192219     0.033477     0.064951  Biso 1.000000     C
    C   1.0     0.192217     0.533465     0.064952  Biso 1.000000     C
    C   1.0     0.692218     0.033473     0.064954  Biso 1.000000     C
    C   1.0     0.692215     0.533467     0.064952  Biso 1.000000     C
    C   1.0     0.130753     0.069105     0.134487  Biso 1.000000     C
    C   1.0     0.130751     0.569094     0.134488  Biso 1.000000     C
    C   1.0     0.630752     0.069106     0.134487  Biso 1.000000     C
    C   1.0     0.630750     0.569090     0.134491  Biso 1.000000     C
    C   1.0     0.278208     0.019856     0.055724  Biso 1.000000     C
    C   1.0     0.278206     0.519845     0.055724  Biso 1.000000     C
    C   1.0     0.778206     0.019856     0.055724  Biso 1.000000     C
    C   1.0     0.778204     0.519844     0.055726  Biso 1.000000     C
    C   1.0     0.164350     0.013445     0.008779  Biso 1.000000     C
    C   1.0     0.164347     0.513434     0.008779  Biso 1.000000     C
    C   1.0     0.664347     0.013445     0.008780  Biso 1.000000     C
    C   1.0     0.664346     0.513432     0.008781  Biso 1.000000     C
    C   1.0     0.386777     0.340570     0.249029  Biso 1.000000     C
    C   1.0     0.386776     0.840559     0.249027  Biso 1.000000     C
    C   1.0     0.886775     0.340569     0.249034  Biso 1.000000     C
    C   1.0     0.886773     0.840559     0.249031  Biso 1.000000     C
    C   1.0     0.259049     0.216108     0.434892  Biso 1.000000     C
    C   1.0     0.259046     0.716100     0.434890  Biso 1.000000     C
    C   1.0     0.759050     0.216108     0.434890  Biso 1.000000     C
    C   1.0     0.759048     0.716095     0.434892  Biso 1.000000     C
    C   1.0     0.268917     0.180094     0.365142  Biso 1.000000     C
    C   1.0     0.268917     0.680080     0.365144  Biso 1.000000     C
    C   1.0     0.768920     0.180089     0.365144  Biso 1.000000     C
    C   1.0     0.768911     0.680089     0.365137  Biso 1.000000     C
    C   1.0     0.326006     0.230642     0.444808  Biso 1.000000     C
    C   1.0     0.326005     0.730629     0.444810  Biso 1.000000     C
    C   1.0     0.826009     0.230638     0.444810  Biso 1.000000     C
    C   1.0     0.826003     0.730634     0.444805  Biso 1.000000     C
    C   1.0     0.182967     0.235628     0.490564  Biso 1.000000     C
    C   1.0     0.182967     0.735614     0.490567  Biso 1.000000     C
    C   1.0     0.682971     0.235623     0.490566  Biso 1.000000     C
    C   1.0     0.682964     0.735621     0.490562  Biso 1.000000     C
    C   1.0     0.489521     0.408050     0.249066  Biso 1.000000     C
    C   1.0     0.489519     0.908040     0.249066  Biso 1.000000     C
    C   1.0     0.989519     0.408049     0.249072  Biso 1.000000     C
    C   1.0     0.989516     0.908039     0.249071  Biso 1.000000     C
    C   1.0     0.024158     0.033206     0.434594  Biso 1.000000     C
    C   1.0     0.024157     0.533193     0.434594  Biso 1.000000     C
    C   1.0     0.524163     0.033199     0.434591  Biso 1.000000     C
    C   1.0     0.524157     0.533193     0.434593  Biso 1.000000     C
    C   1.0     0.049906     0.068537     0.364578  Biso 1.000000     C
    C   1.0     0.049904     0.568526     0.364578  Biso 1.000000     C
    C   1.0     0.549903     0.068539     0.364581  Biso 1.000000     C
    C   1.0     0.549906     0.568523     0.364577  Biso 1.000000     C
    C   1.0     0.451934     0.019140     0.444389  Biso 1.000000     C
    C   1.0     0.451934     0.519126     0.444386  Biso 1.000000     C
    C   1.0     0.951933     0.019139     0.444387  Biso 1.000000     C
    C   1.0     0.951932     0.519128     0.444387  Biso 1.000000     C
    C   1.0     0.072083     0.013876     0.490632  Biso 1.000000     C
    C   1.0     0.072081     0.513865     0.490632  Biso 1.000000     C
    C   1.0     0.572081     0.013877     0.490634  Biso 1.000000     C
    C   1.0     0.572082     0.513862     0.490631  Biso 1.000000     C
    C   1.0     0.492134     0.263729     0.749966  Biso 1.000000     C
    C   1.0     0.492129     0.763719     0.749973  Biso 1.000000     C
    C   1.0     0.992129     0.263729     0.749974  Biso 1.000000     C
    C   1.0     0.992136     0.763719     0.749956  Biso 1.000000     C
    C   1.0     0.028296     0.192399     0.750011  Biso 1.000000     C
    C   1.0     0.028291     0.692389     0.750015  Biso 1.000000     C
    C   1.0     0.528295     0.192399     0.750009  Biso 1.000000     C
    C   1.0     0.528293     0.692388     0.750011  Biso 1.000000     C
    C   1.0     0.131914     0.487588     0.750540  Biso 1.000000     C
    C   1.0     0.131912     0.987578     0.750540  Biso 1.000000     C
    C   1.0     0.631914     0.487588     0.750540  Biso 1.000000     C
    C   1.0     0.631911     0.987577     0.750527  Biso 1.000000     C
    C   1.0     0.095808     0.058939     0.750329  Biso 1.000000     C
    C   1.0     0.095807     0.558929     0.750320  Biso 1.000000     C
    C   1.0     0.595808     0.058939     0.750326  Biso 1.000000     C
    C   1.0     0.595805     0.558928     0.750327  Biso 1.000000     C
    C   1.0     0.007864     0.236254     0.250045  Biso 1.000000     C
    C   1.0     0.007863     0.736244     0.250041  Biso 1.000000     C
    C   1.0     0.507867     0.236255     0.250037  Biso 1.000000     C
    C   1.0     0.507867     0.736245     0.250035  Biso 1.000000     C
    C   1.0     0.471706     0.307586     0.249993  Biso 1.000000     C
    C   1.0     0.471704     0.807575     0.249994  Biso 1.000000     C
    C   1.0     0.971705     0.307585     0.249995  Biso 1.000000     C
    C   1.0     0.971702     0.807575     0.249996  Biso 1.000000     C
    C   1.0     0.368088     0.012396     0.249466  Biso 1.000000     C
    C   1.0     0.368084     0.512386     0.249465  Biso 1.000000     C
    C   1.0     0.868086     0.012396     0.249472  Biso 1.000000     C
    C   1.0     0.868084     0.512386     0.249475  Biso 1.000000     C
    C   1.0     0.404192     0.441046     0.249681  Biso 1.000000     C
    C   1.0     0.404191     0.941035     0.249678  Biso 1.000000     C
    C   1.0     0.904191     0.441045     0.249681  Biso 1.000000     C
    C   1.0     0.904189     0.941035     0.249679  Biso 1.000000     C
    O   1.0     0.423765     0.291418     0.727999  Biso 1.000000     O
    O   1.0     0.423765     0.791407     0.727996  Biso 1.000000     O
    O   1.0     0.923766     0.291417     0.727996  Biso 1.000000     O
    O   1.0     0.923758     0.791408     0.728003  Biso 1.000000     O
    O   1.0     0.252258     0.334182     0.814779  Biso 1.000000     O
    O   1.0     0.252256     0.834171     0.814778  Biso 1.000000     O
    O   1.0     0.752257     0.334182     0.814778  Biso 1.000000     O
    O   1.0     0.752254     0.834173     0.814778  Biso 1.000000     O
    O   1.0     0.123026     0.333015     0.859814  Biso 1.000000     O
    O   1.0     0.123023     0.833006     0.859815  Biso 1.000000     O
    O   1.0     0.623025     0.333014     0.859813  Biso 1.000000     O
    O   1.0     0.623024     0.833002     0.859811  Biso 1.000000     O
    O   1.0     0.211264     0.459837     0.729257  Biso 1.000000     O
    O   1.0     0.211262     0.959827     0.729263  Biso 1.000000     O
    O   1.0     0.711264     0.459837     0.729257  Biso 1.000000     O
    O   1.0     0.711262     0.959827     0.729253  Biso 1.000000     O
    O   1.0     0.340529     0.415703     0.815032  Biso 1.000000     O
    O   1.0     0.340529     0.915688     0.815036  Biso 1.000000     O
    O   1.0     0.840528     0.415703     0.815033  Biso 1.000000     O
    O   1.0     0.840523     0.915700     0.815028  Biso 1.000000     O
    O   1.0     0.447014     0.417678     0.859954  Biso 1.000000     O
    O   1.0     0.447013     0.917665     0.859957  Biso 1.000000     O
    O   1.0     0.947013     0.417679     0.859955  Biso 1.000000     O
    O   1.0     0.947009     0.917670     0.859953  Biso 1.000000     O
    O   1.0     0.031894     0.292463     0.771848  Biso 1.000000     O
    O   1.0     0.031886     0.792452     0.771855  Biso 1.000000     O
    O   1.0     0.531891     0.292462     0.771851  Biso 1.000000     O
    O   1.0     0.531892     0.792452     0.771847  Biso 1.000000     O
    O   1.0     0.162330     0.333764     0.685391  Biso 1.000000     O
    O   1.0     0.162330     0.833748     0.685394  Biso 1.000000     O
    O   1.0     0.662330     0.333762     0.685391  Biso 1.000000     O
    O   1.0     0.662327     0.833757     0.685388  Biso 1.000000     O
    O   1.0     0.291834     0.334542     0.640556  Biso 1.000000     O
    O   1.0     0.291832     0.834531     0.640557  Biso 1.000000     O
    O   1.0     0.791833     0.334542     0.640556  Biso 1.000000     O
    O   1.0     0.791833     0.834531     0.640555  Biso 1.000000     O
    O   1.0     0.081187     0.458884     0.771980  Biso 1.000000     O
    O   1.0     0.081186     0.958873     0.771980  Biso 1.000000     O
    O   1.0     0.581188     0.458883     0.771979  Biso 1.000000     O
    O   1.0     0.581186     0.958873     0.771985  Biso 1.000000     O
    O   1.0     0.493387     0.417563     0.686216  Biso 1.000000     O
    O   1.0     0.493379     0.917560     0.686221  Biso 1.000000     O
    O   1.0     0.993385     0.417565     0.686218  Biso 1.000000     O
    O   1.0     0.993389     0.917548     0.686212  Biso 1.000000     O
    O   1.0     0.386194     0.417239     0.640959  Biso 1.000000     O
    O   1.0     0.386189     0.917232     0.640961  Biso 1.000000     O
    O   1.0     0.886195     0.417238     0.640958  Biso 1.000000     O
    O   1.0     0.886195     0.917225     0.640955  Biso 1.000000     O
    O   1.0     0.076237     0.208566     0.272004  Biso 1.000000     O
    O   1.0     0.076234     0.708556     0.272006  Biso 1.000000     O
    O   1.0     0.576234     0.208567     0.272008  Biso 1.000000     O
    O   1.0     0.576232     0.708556     0.272008  Biso 1.000000     O
    O   1.0     0.247742     0.165805     0.185229  Biso 1.000000     O
    O   1.0     0.247742     0.665790     0.185225  Biso 1.000000     O
    O   1.0     0.747742     0.165803     0.185227  Biso 1.000000     O
    O   1.0     0.747739     0.665792     0.185227  Biso 1.000000     O
    O   1.0     0.376974     0.166972     0.140194  Biso 1.000000     O
    O   1.0     0.376973     0.666958     0.140191  Biso 1.000000     O
    O   1.0     0.876974     0.166970     0.140191  Biso 1.000000     O
    O   1.0     0.876971     0.666960     0.140192  Biso 1.000000     O
    O   1.0     0.288738     0.040147     0.270746  Biso 1.000000     O
    O   1.0     0.288734     0.540137     0.270750  Biso 1.000000     O
    O   1.0     0.788736     0.040147     0.270744  Biso 1.000000     O
    O   1.0     0.788734     0.540137     0.270746  Biso 1.000000     O
    O   1.0     0.159472     0.084280     0.184973  Biso 1.000000     O
    O   1.0     0.159470     0.584269     0.184974  Biso 1.000000     O
    O   1.0     0.659471     0.084280     0.184973  Biso 1.000000     O
    O   1.0     0.659469     0.584270     0.184973  Biso 1.000000     O
    O   1.0     0.052988     0.082305     0.140050  Biso 1.000000     O
    O   1.0     0.052985     0.582295     0.140050  Biso 1.000000     O
    O   1.0     0.552986     0.082305     0.140051  Biso 1.000000     O
    O   1.0     0.552983     0.582297     0.140050  Biso 1.000000     O
    O   1.0     0.468108     0.207522     0.228157  Biso 1.000000     O
    O   1.0     0.468106     0.707511     0.228156  Biso 1.000000     O
    O   1.0     0.968109     0.207522     0.228152  Biso 1.000000     O
    O   1.0     0.968105     0.707511     0.228155  Biso 1.000000     O
    O   1.0     0.337672     0.166218     0.314617  Biso 1.000000     O
    O   1.0     0.337666     0.666214     0.314613  Biso 1.000000     O
    O   1.0     0.837669     0.166223     0.314612  Biso 1.000000     O
    O   1.0     0.837669     0.666208     0.314616  Biso 1.000000     O
    O   1.0     0.208166     0.165442     0.359449  Biso 1.000000     O
    O   1.0     0.208163     0.665434     0.359448  Biso 1.000000     O
    O   1.0     0.708166     0.165444     0.359448  Biso 1.000000     O
    O   1.0     0.708165     0.665430     0.359451  Biso 1.000000     O
    O   1.0     0.418814     0.041101     0.228023  Biso 1.000000     O
    O   1.0     0.418810     0.541091     0.228026  Biso 1.000000     O
    O   1.0     0.918813     0.041100     0.228022  Biso 1.000000     O
    O   1.0     0.918810     0.541090     0.228021  Biso 1.000000     O
    O   1.0     0.006615     0.082420     0.313787  Biso 1.000000     O
    O   1.0     0.006612     0.582409     0.313788  Biso 1.000000     O
    O   1.0     0.506618     0.082416     0.313786  Biso 1.000000     O
    O   1.0     0.506609     0.582411     0.313790  Biso 1.000000     O
    O   1.0     0.113807     0.082745     0.359046  Biso 1.000000     O
    O   1.0     0.113804     0.582735     0.359047  Biso 1.000000     O
    O   1.0     0.613808     0.082743     0.359045  Biso 1.000000     O
    O   1.0     0.613802     0.582736     0.359048  Biso 1.000000     O
   Sc   1.0     0.317476     0.375518     0.728314  Biso 1.000000    Sc
   Sc   1.0     0.317474     0.875507     0.728315  Biso 1.000000    Sc
   Sc   1.0     0.817476     0.375518     0.728314  Biso 1.000000    Sc
   Sc   1.0     0.817473     0.875509     0.728313  Biso 1.000000    Sc
   Sc   1.0     0.056690     0.375528     0.772337  Biso 1.000000    Sc
   Sc   1.0     0.056687     0.875517     0.772337  Biso 1.000000    Sc
   Sc   1.0     0.556689     0.375527     0.772336  Biso 1.000000    Sc
   Sc   1.0     0.556687     0.875519     0.772336  Biso 1.000000    Sc
   Sc   1.0     0.182526     0.124465     0.271691  Biso 1.000000    Sc
   Sc   1.0     0.182523     0.624455     0.271691  Biso 1.000000    Sc
   Sc   1.0     0.682524     0.124466     0.271691  Biso 1.000000    Sc
   Sc   1.0     0.682522     0.624455     0.271692  Biso 1.000000    Sc
   Sc   1.0     0.443312     0.124456     0.227669  Biso 1.000000    Sc
   Sc   1.0     0.443308     0.624447     0.227669  Biso 1.000000    Sc
   Sc   1.0     0.943311     0.124456     0.227667  Biso 1.000000    Sc
   Sc   1.0     0.943308     0.624445     0.227668  Biso 1.000000    Sc
