#======================================================================

# CRYSTAL DATA

#----------------------------------------------------------------------

data_VESTA_phase_1


_pd_phase_name                         MOF
_cell_length_a                         11.99200
_cell_length_b                         16.66200
_cell_length_c                         15.94700
_cell_angle_alpha                      90.00000
_cell_angle_beta                       90.01500
_cell_angle_gamma                      89.98500
_symmetry_space_group_name_H-M         "P 1"
_symmetry_Int_Tables_number            1

loop_
_symmetry_equiv_pos_as_xyz
   "x, y, z"

loop_
   _atom_site_label
   _atom_site_occupancy
   _atom_site_fract_x
   _atom_site_fract_y
   _atom_site_fract_z
   _atom_site_adp_type
   _atom_site_B_iso_or_equiv
   _atom_site_type_symbol
    H   1.0     0.228586     0.396872     0.233364  Biso 1.000000     H
    H   1.0     0.728589     0.396872     0.233364  Biso 1.000000     H
    H   1.0     0.332381     0.362508     0.363305  Biso 1.000000     H
    H   1.0     0.832386     0.362508     0.363305  Biso 1.000000     H
    H   1.0     0.097289     0.508828     0.297240  Biso 1.000000     H
    H   1.0     0.597293     0.508828     0.297240  Biso 1.000000     H
    H   1.0     0.006717     0.546792     0.161014  Biso 1.000000     H
    H   1.0     0.506721     0.546792     0.161015  Biso 1.000000     H
    H   1.0     0.395976     0.568676     0.034432  Biso 1.000000     H
    H   1.0     0.895981     0.568676     0.034433  Biso 1.000000     H
    H   1.0     0.206364     0.489692     0.116920  Biso 1.000000     H
    H   1.0     0.706368     0.489692     0.116920  Biso 1.000000     H
    H   1.0     0.316966     0.448825     0.059020  Biso 1.000000     H
    H   1.0     0.816970     0.448825     0.059021  Biso 1.000000     H
    H   1.0     0.377827     0.645083     0.168356  Biso 1.000000     H
    H   1.0     0.877832     0.645083     0.168357  Biso 1.000000     H
    H   1.0     0.199974     0.713024     0.192734  Biso 1.000000     H
    H   1.0     0.699979     0.713024     0.192736  Biso 1.000000     H
    H   1.0     0.186019     0.607416     0.203139  Biso 1.000000     H
    H   1.0     0.686024     0.607416     0.203138  Biso 1.000000     H
    H   1.0     0.100993     0.708493     0.071686  Biso 1.000000     H
    H   1.0     0.600999     0.708494     0.071686  Biso 1.000000     H
    H   1.0     0.021426     0.603206     0.733405  Biso 1.000000     H
    H   1.0     0.521430     0.603207     0.733406  Biso 1.000000     H
    H   1.0     0.417611     0.637561     0.863295  Biso 1.000000     H
    H   1.0     0.917616     0.637561     0.863296  Biso 1.000000     H
    H   1.0     0.152713     0.491244     0.797093  Biso 1.000000     H
    H   1.0     0.652717     0.491244     0.797093  Biso 1.000000     H
    H   1.0     0.243319     0.453278     0.660916  Biso 1.000000     H
    H   1.0     0.743323     0.453278     0.660917  Biso 1.000000     H
    H   1.0     0.354073     0.431314     0.534474  Biso 1.000000     H
    H   1.0     0.854077     0.431315     0.534474  Biso 1.000000     H
    H   1.0     0.043667     0.510391     0.616960  Biso 1.000000     H
    H   1.0     0.543672     0.510390     0.616960  Biso 1.000000     H
    H   1.0     0.433034     0.551191     0.558999  Biso 1.000000     H
    H   1.0     0.933039     0.551192     0.558999  Biso 1.000000     H
    H   1.0     0.372335     0.354995     0.668468  Biso 1.000000     H
    H   1.0     0.872337     0.354996     0.668470  Biso 1.000000     H
    H   1.0     0.050215     0.287055     0.692843  Biso 1.000000     H
    H   1.0     0.550220     0.287055     0.692843  Biso 1.000000     H
    H   1.0     0.064185     0.392666     0.703176  Biso 1.000000     H
    H   1.0     0.564191     0.392668     0.703178  Biso 1.000000     H
    H   1.0     0.149049     0.291515     0.571754  Biso 1.000000     H
    H   1.0     0.649053     0.291515     0.571753  Biso 1.000000     H
    H   1.0     0.271578     0.896896     0.266779  Biso 1.000000     H
    H   1.0     0.771582     0.896896     0.266779  Biso 1.000000     H
    H   1.0     0.167579     0.862584     0.136936  Biso 1.000000     H
    H   1.0     0.667583     0.862584     0.136937  Biso 1.000000     H
    H   1.0     0.402764     0.008953     0.203261  Biso 1.000000     H
    H   1.0     0.902768     0.008952     0.203261  Biso 1.000000     H
    H   1.0     0.493533     0.046870     0.339405  Biso 1.000000     H
    H   1.0     0.993536     0.046869     0.339405  Biso 1.000000     H
    H   1.0     0.104300     0.068594     0.465914  Biso 1.000000     H
    H   1.0     0.604306     0.068594     0.465914  Biso 1.000000     H
    H   1.0     0.293948     0.989747     0.383254  Biso 1.000000     H
    H   1.0     0.793953     0.989747     0.383254  Biso 1.000000     H
    H   1.0     0.183500     0.948777     0.441200  Biso 1.000000     H
    H   1.0     0.683505     0.948777     0.441200  Biso 1.000000     H
    H   1.0     0.122381     0.145142     0.332089  Biso 1.000000     H
    H   1.0     0.622388     0.145142     0.332091  Biso 1.000000     H
    H   1.0     0.300170     0.213079     0.307723  Biso 1.000000     H
    H   1.0     0.800176     0.213079     0.307725  Biso 1.000000     H
    H   1.0     0.314162     0.107481     0.297225  Biso 1.000000     H
    H   1.0     0.814170     0.107480     0.297223  Biso 1.000000     H
    H   1.0     0.399163     0.208416     0.428771  Biso 1.000000     H
    H   1.0     0.899169     0.208416     0.428772  Biso 1.000000     H
    H   1.0     0.478399     0.103233     0.766681  Biso 1.000000     H
    H   1.0     0.978403     0.103233     0.766681  Biso 1.000000     H
    H   1.0     0.082472     0.137567     0.636925  Biso 1.000000     H
    H   1.0     0.582477     0.137567     0.636925  Biso 1.000000     H
    H   1.0     0.347143     0.991048     0.703320  Biso 1.000000     H
    H   1.0     0.847147     0.991047     0.703321  Biso 1.000000     H
    H   1.0     0.256302     0.953100     0.839386  Biso 1.000000     H
    H   1.0     0.756305     0.953100     0.839386  Biso 1.000000     H
    H   1.0     0.145635     0.931449     0.965803  Biso 1.000000     H
    H   1.0     0.645639     0.931448     0.965803  Biso 1.000000     H
    H   1.0     0.455906     0.010199     0.883054  Biso 1.000000     H
    H   1.0     0.955911     0.010199     0.883054  Biso 1.000000     H
    H   1.0     0.066241     0.051246     0.941093  Biso 1.000000     H
    H   1.0     0.566245     0.051246     0.941094  Biso 1.000000     H
    H   1.0     0.127488     0.854890     0.831977  Biso 1.000000     H
    H   1.0     0.627488     0.854889     0.831979  Biso 1.000000     H
    H   1.0     0.449681     0.786913     0.807642  Biso 1.000000     H
    H   1.0     0.949688     0.786913     0.807642  Biso 1.000000     H
    H   1.0     0.435677     0.892506     0.797100  Biso 1.000000     H
    H   1.0     0.935685     0.892504     0.797102  Biso 1.000000     H
    H   1.0     0.350773     0.791603     0.928667  Biso 1.000000     H
    H   1.0     0.850779     0.791603     0.928666  Biso 1.000000     H
    C   1.0     0.310987     0.422621     0.244013  Biso 1.000000     C
    C   1.0     0.810991     0.422621     0.244014  Biso 1.000000     C
    C   1.0     0.358765     0.475326     0.185872  Biso 1.000000     C
    C   1.0     0.858769     0.475325     0.185872  Biso 1.000000     C
    C   1.0     0.368314     0.402863     0.316898  Biso 1.000000     C
    C   1.0     0.868319     0.402862     0.316898  Biso 1.000000     C
    C   1.0     0.016139     0.484645     0.279208  Biso 1.000000     C
    C   1.0     0.516143     0.484646     0.279208  Biso 1.000000     C
    C   1.0     0.464711     0.506180     0.204345  Biso 1.000000     C
    C   1.0     0.964715     0.506180     0.204345  Biso 1.000000     C
    C   1.0     0.296593     0.495071     0.105971  Biso 1.000000     C
    C   1.0     0.796596     0.495071     0.105971  Biso 1.000000     C
    C   1.0     0.315859     0.645800     0.117363  Biso 1.000000     C
    C   1.0     0.815863     0.645800     0.117363  Biso 1.000000     C
    C   1.0     0.200285     0.656089     0.157809  Biso 1.000000     C
    C   1.0     0.700289     0.656090     0.157809  Biso 1.000000     C
    C   1.0     0.341377     0.720157     0.063285  Biso 1.000000     C
    C   1.0     0.841382     0.720157     0.063286  Biso 1.000000     C
    C   1.0     0.439028     0.577455     0.744012  Biso 1.000000     C
    C   1.0     0.939032     0.577455     0.744012  Biso 1.000000     C
    C   1.0     0.391265     0.524743     0.685853  Biso 1.000000     C
    C   1.0     0.891270     0.524743     0.685853  Biso 1.000000     C
    C   1.0     0.381688     0.597208     0.816870  Biso 1.000000     C
    C   1.0     0.881693     0.597208     0.816870  Biso 1.000000     C
    C   1.0     0.233867     0.515426     0.779105  Biso 1.000000     C
    C   1.0     0.733872     0.515425     0.779105  Biso 1.000000     C
    C   1.0     0.285313     0.493892     0.704269  Biso 1.000000     C
    C   1.0     0.785317     0.493892     0.704269  Biso 1.000000     C
    C   1.0     0.453445     0.504981     0.605987  Biso 1.000000     C
    C   1.0     0.953448     0.504980     0.605987  Biso 1.000000     C
    C   1.0     0.434245     0.354242     0.617459  Biso 1.000000     C
    C   1.0     0.934244     0.354244     0.617459  Biso 1.000000     C
    C   1.0     0.049856     0.343969     0.657880  Biso 1.000000     C
    C   1.0     0.549864     0.343970     0.657883  Biso 1.000000     C
    C   1.0     0.408649     0.279870     0.563411  Biso 1.000000     C
    C   1.0     0.908662     0.279870     0.563410  Biso 1.000000     C
    C   1.0     0.189156     0.922676     0.256217  Biso 1.000000     C
    C   1.0     0.689160     0.922676     0.256218  Biso 1.000000     C
    C   1.0     0.141456     0.975380     0.314414  Biso 1.000000     C
    C   1.0     0.641461     0.975381     0.314414  Biso 1.000000     C
    C   1.0     0.131717     0.902944     0.183380  Biso 1.000000     C
    C   1.0     0.631722     0.902944     0.183381  Biso 1.000000     C
    C   1.0     0.483938     0.984757     0.221209  Biso 1.000000     C
    C   1.0     0.983943     0.984757     0.221209  Biso 1.000000     C
    C   1.0     0.035476     0.000000     0.296031  Biso 1.000000     C
    C   1.0     0.535481     0.000000     0.296031  Biso 1.000000     C
    C   1.0     0.203728     0.995079     0.394283  Biso 1.000000     C
    C   1.0     0.703732     0.995079     0.394284  Biso 1.000000     C
    C   1.0     0.184353     0.145807     0.383082  Biso 1.000000     C
    C   1.0     0.684363     0.145809     0.383083  Biso 1.000000     C
    C   1.0     0.299898     0.156118     0.342604  Biso 1.000000     C
    C   1.0     0.799907     0.156117     0.342602  Biso 1.000000     C
    C   1.0     0.158766     0.220112     0.437245  Biso 1.000000     C
    C   1.0     0.658763     0.220112     0.437245  Biso 1.000000     C
    C   1.0     0.060798     0.077421     0.756156  Biso 1.000000     C
    C   1.0     0.560802     0.077420     0.756156  Biso 1.000000     C
    C   1.0     0.108436     0.024664     0.814348  Biso 1.000000     C
    C   1.0     0.608441     0.024664     0.814348  Biso 1.000000     C
    C   1.0     0.118283     0.097168     0.683368  Biso 1.000000     C
    C   1.0     0.618288     0.097169     0.683369  Biso 1.000000     C
    C   1.0     0.265985     0.015271     0.721237  Biso 1.000000     C
    C   1.0     0.765989     0.015271     0.721237  Biso 1.000000     C
    C   1.0     0.214395    -0.006260     0.796012  Biso 1.000000     C
    C   1.0     0.714399    -0.006260     0.796012  Biso 1.000000     C
    C   1.0     0.046120     0.004926     0.894161  Biso 1.000000     C
    C   1.0     0.546124     0.004927     0.894161  Biso 1.000000     C
    C   1.0     0.065551     0.854215     0.882969  Biso 1.000000     C
    C   1.0     0.565548     0.854212     0.882969  Biso 1.000000     C
    C   1.0     0.449975     0.843886     0.842499  Biso 1.000000     C
    C   1.0     0.949985     0.843885     0.842501  Biso 1.000000     C
    C   1.0     0.091193     0.779908     0.937125  Biso 1.000000     C
    C   1.0     0.591208     0.779908     0.937124  Biso 1.000000     C
    N   1.0     0.469654     0.433460     0.334691  Biso 1.000000     N
    N   1.0     0.969658     0.433460     0.334692  Biso 1.000000     N
    N   1.0     0.320128     0.572655     0.065077  Biso 1.000000     N
    N   1.0     0.820133     0.572655     0.065078  Biso 1.000000     N
    N   1.0     0.280346     0.566611     0.834613  Biso 1.000000     N
    N   1.0     0.780350     0.566610     0.834613  Biso 1.000000     N
    N   1.0     0.429932     0.427367     0.565138  Biso 1.000000     N
    N   1.0     0.929937     0.427367     0.565135  Biso 1.000000     N
    N   1.0     0.030342     0.933566     0.165675  Biso 1.000000     N
    N   1.0     0.530346     0.933567     0.165675  Biso 1.000000     N
    N   1.0     0.180150     0.072605     0.435280  Biso 1.000000     N
    N   1.0     0.680154     0.072606     0.435278  Biso 1.000000     N
    N   1.0     0.219636     0.066506     0.665704  Biso 1.000000     N
    N   1.0     0.719639     0.066506     0.665704  Biso 1.000000     N
    N   1.0     0.069763     0.927415     0.935173  Biso 1.000000     N
    N   1.0     0.569768     0.927414     0.935170  Biso 1.000000     N
    O   1.0     0.337795     0.711717     0.983866  Biso 1.000000     O
    O   1.0     0.837800     0.711718     0.983867  Biso 1.000000     O
    O   1.0     0.111896     0.653362     0.097689  Biso 1.000000     O
    O   1.0     0.611900     0.653362     0.097689  Biso 1.000000     O
    O   1.0     0.360457     0.784374     0.103324  Biso 1.000000     O
    O   1.0     0.860462     0.784375     0.103324  Biso 1.000000     O
    O   1.0     0.412204     0.288294     0.484013  Biso 1.000000     O
    O   1.0     0.912206     0.288294     0.484012  Biso 1.000000     O
    O   1.0     0.138170     0.346659     0.597733  Biso 1.000000     O
    O   1.0     0.638175     0.346659     0.597732  Biso 1.000000     O
    O   1.0     0.389557     0.215663     0.603461  Biso 1.000000     O
    O   1.0     0.889561     0.215664     0.603460  Biso 1.000000     O
    O   1.0     0.162232     0.211616     0.516643  Biso 1.000000     O
    O   1.0     0.662239     0.211616     0.516643  Biso 1.000000     O
    O   1.0     0.388344     0.153327     0.402666  Biso 1.000000     O
    O   1.0     0.888349     0.153327     0.402668  Biso 1.000000     O
    O   1.0     0.139702     0.284367     0.397269  Biso 1.000000     O
    O   1.0     0.639708     0.284368     0.397268  Biso 1.000000     O
    O   1.0     0.087760     0.788390     0.016543  Biso 1.000000     O
    O   1.0     0.587762     0.788390     0.016541  Biso 1.000000     O
    O   1.0     0.361595     0.846699     0.902580  Biso 1.000000     O
    O   1.0     0.861601     0.846699     0.902578  Biso 1.000000     O
    O   1.0     0.110261     0.715662     0.897135  Biso 1.000000     O
    O   1.0     0.610265     0.715662     0.897133  Biso 1.000000     O
   Cl   1.0     0.039042     0.495200     0.961998  Biso 1.000000    Cl
   Cl   1.0     0.539046     0.495201     0.961998  Biso 1.000000    Cl
   Cl   1.0     0.210995     0.504815     0.462061  Biso 1.000000    Cl
   Cl   1.0     0.710999     0.504814     0.462060  Biso 1.000000    Cl
   Cl   1.0     0.461196     0.995172     0.538328  Biso 1.000000    Cl
   Cl   1.0     0.961200     0.995171     0.538329  Biso 1.000000    Cl
   Cl   1.0     0.288760     0.004836     0.038256  Biso 1.000000    Cl
   Cl   1.0     0.788763     0.004835     0.038256  Biso 1.000000    Cl
   Cd   1.0     0.185931     0.601063     0.957539  Biso 1.000000    Cd
   Cd   1.0     0.685936     0.601064     0.957539  Biso 1.000000    Cd
   Cd   1.0     0.064069     0.398965     0.457644  Biso 1.000000    Cd
   Cd   1.0     0.564072     0.398964     0.457644  Biso 1.000000    Cd
   Cd   1.0     0.314249     0.101008     0.542890  Biso 1.000000    Cd
   Cd   1.0     0.814254     0.101007     0.542890  Biso 1.000000    Cd
   Cd   1.0     0.435766     0.899033     0.042802  Biso 1.000000    Cd
   Cd   1.0     0.935770     0.899032     0.042802  Biso 1.000000    Cd
