#======================================================================

# CRYSTAL DATA

#----------------------------------------------------------------------

data_VESTA_phase_1


_pd_phase_name                         MOF
_cell_length_a                         14.71200
_cell_length_b                         18.13000
_cell_length_c                         25.12000
_cell_angle_alpha                      89.96200
_cell_angle_beta                       90.09700
_cell_angle_gamma                      90.04700
_symmetry_space_group_name_H-M         "P 1"
_symmetry_Int_Tables_number            1

loop_
_symmetry_equiv_pos_as_xyz
   "x, y, z"

loop_
   _atom_site_label
   _atom_site_occupancy
   _atom_site_fract_x
   _atom_site_fract_y
   _atom_site_fract_z
   _atom_site_adp_type
   _atom_site_B_iso_or_equiv
   _atom_site_type_symbol
    H   1.0     0.484860     0.948141     0.928961  Biso 1.000000     H
    H   1.0     0.464639     0.811344     0.931673  Biso 1.000000     H
    H   1.0     0.549654     0.805999     0.766896  Biso 1.000000     H
    H   1.0     0.568346     0.942576     0.771682  Biso 1.000000     H
    H   1.0     0.532439     0.563914     0.925553  Biso 1.000000     H
    H   1.0     0.553439     0.700864     0.927620  Biso 1.000000     H
    H   1.0     0.428702     0.708885     0.771632  Biso 1.000000     H
    H   1.0     0.413888     0.571935     0.776131  Biso 1.000000     H
    H   1.0     0.824720     0.090673     0.812797  Biso 1.000000     H
    H   1.0     0.981799     0.138593     0.804324  Biso 1.000000     H
    H   1.0     0.899687     0.339823     0.882334  Biso 1.000000     H
    H   1.0     0.742130     0.291884     0.888262  Biso 1.000000     H
    H   1.0     0.009323     0.386575     0.835944  Biso 1.000000     H
    H   1.0     0.166575     0.433471     0.837224  Biso 1.000000     H
    H   1.0     0.268865     0.211711     0.841264  Biso 1.000000     H
    H   1.0     0.110943     0.163567     0.844498  Biso 1.000000     H
    H   1.0     0.382268     0.017488     0.991039  Biso 1.000000     H
    H   1.0     0.294270     0.017097     0.074869  Biso 1.000000     H
    H   1.0     0.258056     0.252357     0.061668  Biso 1.000000     H
    H   1.0     0.345637     0.251429     0.976536  Biso 1.000000     H
    H   1.0     0.156852     0.027759     0.110466  Biso 1.000000     H
    H   1.0     0.075701     0.023448     0.196952  Biso 1.000000     H
    H   1.0     0.187297     0.233712     0.239810  Biso 1.000000     H
    H   1.0     0.269881     0.239173     0.153358  Biso 1.000000     H
    H   1.0     0.334203     0.037480     0.734809  Biso 1.000000     H
    H   1.0     0.236366     0.035838     0.654678  Biso 1.000000     H
    H   1.0     0.344127     0.248187     0.608673  Biso 1.000000     H
    H   1.0     0.437789     0.250171     0.691111  Biso 1.000000     H
    H   1.0     0.224831     0.019213     0.572954  Biso 1.000000     H
    H   1.0     0.126221     0.012977     0.493601  Biso 1.000000     H
    H   1.0     0.115508     0.249134     0.486323  Biso 1.000000     H
    H   1.0     0.213661     0.257039     0.567184  Biso 1.000000     H
    H   1.0     0.984948     0.551637     0.428889  Biso 1.000000     H
    H   1.0     0.964587     0.688377     0.431631  Biso 1.000000     H
    H   1.0     0.049742     0.694266     0.266877  Biso 1.000000     H
    H   1.0     0.068580     0.557726     0.271637  Biso 1.000000     H
    H   1.0     0.032270     0.935995     0.425550  Biso 1.000000     H
    H   1.0     0.053361     0.799088     0.427603  Biso 1.000000     H
    H   1.0     0.928576     0.791152     0.271627  Biso 1.000000     H
    H   1.0     0.913661     0.928060     0.276135  Biso 1.000000     H
    H   1.0     0.324967     0.409367     0.312721  Biso 1.000000     H
    H   1.0     0.481915     0.361401     0.304292  Biso 1.000000     H
    H   1.0     0.399283     0.160147     0.382417  Biso 1.000000     H
    H   1.0     0.241873     0.208142     0.388320  Biso 1.000000     H
    H   1.0     0.508861     0.113374     0.336106  Biso 1.000000     H
    H   1.0     0.665998     0.066439     0.337383  Biso 1.000000     H
    H   1.0     0.768803     0.288176     0.341237  Biso 1.000000     H
    H   1.0     0.611011     0.336355     0.344448  Biso 1.000000     H
    H   1.0     0.882383     0.482440     0.490821  Biso 1.000000     H
    H   1.0     0.794387     0.482926     0.574655  Biso 1.000000     H
    H   1.0     0.757769     0.247647     0.561823  Biso 1.000000     H
    H   1.0     0.845343     0.248476     0.476678  Biso 1.000000     H
    H   1.0     0.657029     0.472313     0.610305  Biso 1.000000     H
    H   1.0     0.575990     0.476733     0.696816  Biso 1.000000     H
    H   1.0     0.687149     0.266501     0.739954  Biso 1.000000     H
    H   1.0     0.769631     0.260924     0.653475  Biso 1.000000     H
    H   1.0     0.834120     0.462434     0.234850  Biso 1.000000     H
    H   1.0     0.736223     0.464058     0.154731  Biso 1.000000     H
    H   1.0     0.844133     0.252010     0.108684  Biso 1.000000     H
    H   1.0     0.937812     0.250009     0.191116  Biso 1.000000     H
    H   1.0     0.724617     0.480820     0.073014  Biso 1.000000     H
    H   1.0     0.626037     0.486998     0.993664  Biso 1.000000     H
    H   1.0     0.615579     0.250836     0.986366  Biso 1.000000     H
    H   1.0     0.713706     0.242981     0.067227  Biso 1.000000     H
    H   1.0     0.015041     0.448324     0.571123  Biso 1.000000     H
    H   1.0     0.035399     0.311583     0.568380  Biso 1.000000     H
    H   1.0     0.950266     0.305698     0.733138  Biso 1.000000     H
    H   1.0     0.931431     0.442238     0.728378  Biso 1.000000     H
    H   1.0     0.967720     0.063966     0.574466  Biso 1.000000     H
    H   1.0     0.946629     0.200873     0.572412  Biso 1.000000     H
    H   1.0     0.071424     0.208810     0.728385  Biso 1.000000     H
    H   1.0     0.086337     0.071902     0.723878  Biso 1.000000     H
    H   1.0     0.675032     0.590594     0.687288  Biso 1.000000     H
    H   1.0     0.518084     0.638559     0.695719  Biso 1.000000     H
    H   1.0     0.600715     0.839816     0.617599  Biso 1.000000     H
    H   1.0     0.758126     0.791822     0.611695  Biso 1.000000     H
    H   1.0     0.491139     0.886587     0.663911  Biso 1.000000     H
    H   1.0     0.334002     0.933524     0.662633  Biso 1.000000     H
    H   1.0     0.231195     0.711787     0.658774  Biso 1.000000     H
    H   1.0     0.388987     0.663607     0.655563  Biso 1.000000     H
    H   1.0     0.117611     0.517526     0.509190  Biso 1.000000     H
    H   1.0     0.205606     0.517039     0.425356  Biso 1.000000     H
    H   1.0     0.242225     0.752318     0.438188  Biso 1.000000     H
    H   1.0     0.154653     0.751490     0.523334  Biso 1.000000     H
    H   1.0     0.342960     0.527649     0.389706  Biso 1.000000     H
    H   1.0     0.424000     0.523229     0.303194  Biso 1.000000     H
    H   1.0     0.312850     0.733465     0.260059  Biso 1.000000     H
    H   1.0     0.230367     0.739042     0.346536  Biso 1.000000     H
    H   1.0     0.165880     0.537531     0.765162  Biso 1.000000     H
    H   1.0     0.263780     0.535909     0.845279  Biso 1.000000     H
    H   1.0     0.155871     0.747958     0.891325  Biso 1.000000     H
    H   1.0     0.062190     0.749958     0.808895  Biso 1.000000     H
    H   1.0     0.275386     0.519148     0.926996  Biso 1.000000     H
    H   1.0     0.373965     0.512970     0.006347  Biso 1.000000     H
    H   1.0     0.384422     0.749131     0.013645  Biso 1.000000     H
    H   1.0     0.286297     0.756987     0.932783  Biso 1.000000     H
    H   1.0     0.515140     0.051826     0.071052  Biso 1.000000     H
    H   1.0     0.535363     0.188623     0.068339  Biso 1.000000     H
    H   1.0     0.450353     0.193969     0.233117  Biso 1.000000     H
    H   1.0     0.431660     0.057392     0.228332  Biso 1.000000     H
    H   1.0     0.467563     0.436052     0.074458  Biso 1.000000     H
    H   1.0     0.446564     0.299102     0.072393  Biso 1.000000     H
    H   1.0     0.571305     0.291083     0.228380  Biso 1.000000     H
    H   1.0     0.586117     0.428033     0.223880  Biso 1.000000     H
    H   1.0     0.175279     0.909297     0.187213  Biso 1.000000     H
    H   1.0     0.018200     0.861378     0.195687  Biso 1.000000     H
    H   1.0     0.100310     0.660143     0.117685  Biso 1.000000     H
    H   1.0     0.257868     0.708080     0.111755  Biso 1.000000     H
    H   1.0     0.990676     0.613394     0.164077  Biso 1.000000     H
    H   1.0     0.833422     0.566498     0.162795  Biso 1.000000     H
    H   1.0     0.731132     0.788258     0.158749  Biso 1.000000     H
    H   1.0     0.889054     0.836401     0.155515  Biso 1.000000     H
    H   1.0     0.617733     0.982478     0.008973  Biso 1.000000     H
    H   1.0     0.705729     0.982868     0.925143  Biso 1.000000     H
    H   1.0     0.741946     0.747609     0.938346  Biso 1.000000     H
    H   1.0     0.654365     0.748538     0.023479  Biso 1.000000     H
    H   1.0     0.843145     0.972206     0.889544  Biso 1.000000     H
    H   1.0     0.924298     0.976512     0.803058  Biso 1.000000     H
    H   1.0     0.812703     0.766244     0.760205  Biso 1.000000     H
    H   1.0     0.730119     0.760788     0.846658  Biso 1.000000     H
    H   1.0     0.665796     0.962485     0.265204  Biso 1.000000     H
    H   1.0     0.763632     0.964125     0.345336  Biso 1.000000     H
    H   1.0     0.655860     0.751781     0.391342  Biso 1.000000     H
    H   1.0     0.562200     0.749797     0.308904  Biso 1.000000     H
    H   1.0     0.775164     0.980751     0.427060  Biso 1.000000     H
    H   1.0     0.873776     0.986987     0.506411  Biso 1.000000     H
    H   1.0     0.884487     0.750830     0.513690  Biso 1.000000     H
    H   1.0     0.786331     0.742926     0.432831  Biso 1.000000     H
    C   1.0     0.498811     0.914098     0.894283  Biso 1.000000     C
    C   1.0     0.487566     0.838184     0.895316  Biso 1.000000     C
    C   1.0     0.504834     0.797176     0.849148  Biso 1.000000     C
    C   1.0     0.533791     0.835245     0.803588  Biso 1.000000     C
    C   1.0     0.544927     0.911237     0.806062  Biso 1.000000     C
    C   1.0     0.510700     0.598591     0.892548  Biso 1.000000     C
    C   1.0     0.521922     0.674510     0.893287  Biso 1.000000     C
    C   1.0     0.493633     0.716299     0.849292  Biso 1.000000     C
    C   1.0     0.454049     0.678959     0.806233  Biso 1.000000     C
    C   1.0     0.444795     0.602793     0.808688  Biso 1.000000     C
    C   1.0     0.679523     0.159355     0.858107  Biso 1.000000     C
    C   1.0     0.773955     0.188013     0.851631  Biso 1.000000     C
    C   1.0     0.842048     0.145272     0.827788  Biso 1.000000     C
    C   1.0     0.930152     0.172499     0.823394  Biso 1.000000     C
    C   1.0     0.953258     0.243035     0.842795  Biso 1.000000     C
    C   1.0     0.883723     0.285691     0.865950  Biso 1.000000     C
    C   1.0     0.795524     0.258865     0.870151  Biso 1.000000     C
    C   1.0     0.047547     0.271237     0.840112  Biso 1.000000     C
    C   1.0     0.065549     0.347533     0.837890  Biso 1.000000     C
    C   1.0     0.154189     0.374298     0.838059  Biso 1.000000     C
    C   1.0     0.227987     0.325473     0.838878  Biso 1.000000     C
    C   1.0     0.211179     0.249283     0.839820  Biso 1.000000     C
    C   1.0     0.122439     0.222796     0.841029  Biso 1.000000     C
    C   1.0     0.324113     0.352331     0.839172  Biso 1.000000     C
    C   1.0     0.423867     0.134638     0.928211  Biso 1.000000     C
    C   1.0     0.369743     0.134648     0.978606  Biso 1.000000     C
    C   1.0     0.353947     0.068737     0.006322  Biso 1.000000     C
    C   1.0     0.304060     0.068650     0.053243  Biso 1.000000     C
    C   1.0     0.269898     0.134778     0.074640  Biso 1.000000     C
    C   1.0     0.285907     0.200750     0.046507  Biso 1.000000     C
    C   1.0     0.334243     0.200675     0.998871  Biso 1.000000     C
    C   1.0     0.219698     0.133734     0.125520  Biso 1.000000     C
    C   1.0     0.164610     0.072917     0.138729  Biso 1.000000     C
    C   1.0     0.118888     0.070234     0.186992  Biso 1.000000     C
    C   1.0     0.127136     0.127938     0.223836  Biso 1.000000     C
    C   1.0     0.181339     0.189067     0.211007  Biso 1.000000     C
    C   1.0     0.226627     0.191931     0.162420  Biso 1.000000     C
    C   1.0     0.078824     0.123903     0.276080  Biso 1.000000     C
    C   1.0     0.451678     0.142655     0.766084  Biso 1.000000     C
    C   1.0     0.392417     0.143645     0.717728  Biso 1.000000     C
    C   1.0     0.335279     0.083517     0.706933  Biso 1.000000     C
    C   1.0     0.281004     0.082812     0.661701  Biso 1.000000     C
    C   1.0     0.282945     0.141838     0.625203  Biso 1.000000     C
    C   1.0     0.339939     0.202289     0.636627  Biso 1.000000     C
    C   1.0     0.393479     0.203509     0.682405  Biso 1.000000     C
    C   1.0     0.226383     0.138787     0.576581  Biso 1.000000     C
    C   1.0     0.200995     0.070194     0.554713  Biso 1.000000     C
    C   1.0     0.145594     0.066310     0.509987  Biso 1.000000     C
    C   1.0     0.113298     0.130755     0.485610  Biso 1.000000     C
    C   1.0     0.139539     0.199419     0.506315  Biso 1.000000     C
    C   1.0     0.195304     0.203237     0.551022  Biso 1.000000     C
    C   1.0     0.051604     0.127040     0.438429  Biso 1.000000     C
    C   1.0    -0.001076     0.585785     0.394225  Biso 1.000000     C
    C   1.0     0.987559     0.661674     0.395268  Biso 1.000000     C
    C   1.0     0.004848     0.702828     0.349117  Biso 1.000000     C
    C   1.0     0.033865     0.664908     0.303558  Biso 1.000000     C
    C   1.0     0.045102     0.588932     0.306021  Biso 1.000000     C
    C   1.0     0.010534     0.901352     0.392543  Biso 1.000000     C
    C   1.0     0.021830     0.825451     0.393269  Biso 1.000000     C
    C   1.0     0.993541     0.783689     0.349277  Biso 1.000000     C
    C   1.0     0.953926     0.821053     0.306226  Biso 1.000000     C
    C   1.0     0.944595     0.897199     0.308691  Biso 1.000000     C
    C   1.0     0.179544     0.340689     0.358091  Biso 1.000000     C
    C   1.0     0.273933     0.312032     0.351625  Biso 1.000000     C
    C   1.0     0.342145     0.354755     0.327755  Biso 1.000000     C
    C   1.0     0.430185     0.327497     0.323381  Biso 1.000000     C
    C   1.0     0.453126     0.256940     0.342823  Biso 1.000000     C
    C   1.0     0.383472     0.214300     0.366003  Biso 1.000000     C
    C   1.0     0.295342     0.241161     0.370188  Biso 1.000000     C
    C   1.0     0.547339     0.228706     0.340159  Biso 1.000000     C
    C   1.0     0.565178     0.152407     0.338004  Biso 1.000000     C
    C   1.0     0.653761     0.125617     0.338174  Biso 1.000000     C
    C   1.0     0.727681     0.174422     0.338938  Biso 1.000000     C
    C   1.0     0.711032     0.250614     0.339830  Biso 1.000000     C
    C   1.0     0.622355     0.277123     0.341029  Biso 1.000000     C
    C   1.0     0.823782     0.147589     0.339223  Biso 1.000000     C
    C   1.0     0.923847     0.365273     0.428195  Biso 1.000000     C
    C   1.0     0.869663     0.365267     0.478569  Biso 1.000000     C
    C   1.0     0.853981     0.431214     0.506195  Biso 1.000000     C
    C   1.0     0.804092     0.431350     0.553111  Biso 1.000000     C
    C   1.0     0.769818     0.365241     0.574611  Biso 1.000000     C
    C   1.0     0.785711     0.299241     0.546580  Biso 1.000000     C
    C   1.0     0.834042     0.299256     0.498931  Biso 1.000000     C
    C   1.0     0.719649     0.366339     0.625497  Biso 1.000000     C
    C   1.0     0.664714     0.427182     0.638632  Biso 1.000000     C
    C   1.0     0.619057     0.429928     0.686908  Biso 1.000000     C
    C   1.0     0.627242     0.372270     0.723839  Biso 1.000000     C
    C   1.0     0.681267     0.311109     0.711080  Biso 1.000000     C
    C   1.0     0.726492     0.308181     0.662481  Biso 1.000000     C
    C   1.0     0.579054     0.376364     0.776107  Biso 1.000000     C
    C   1.0     0.951650     0.357391     0.266100  Biso 1.000000     C
    C   1.0     0.892385     0.356405     0.217748  Biso 1.000000     C
    C   1.0     0.835197     0.416452     0.206971  Biso 1.000000     C
    C   1.0     0.780907     0.417156     0.161745  Biso 1.000000     C
    C   1.0     0.782877     0.358206     0.125243  Biso 1.000000     C
    C   1.0     0.839922     0.297836     0.136649  Biso 1.000000     C
    C   1.0     0.893464     0.296609     0.182423  Biso 1.000000     C
    C   1.0     0.726301     0.361241     0.076629  Biso 1.000000     C
    C   1.0     0.700839     0.429825     0.054769  Biso 1.000000     C
    C   1.0     0.645465     0.433682     0.010032  Biso 1.000000     C
    C   1.0     0.613256     0.369211     0.985662  Biso 1.000000     C
    C   1.0     0.639553     0.300568     0.006349  Biso 1.000000     C
    C   1.0     0.695294     0.296776     0.051066  Biso 1.000000     C
    C   1.0     0.551628     0.372909     0.938454  Biso 1.000000     C
    C   1.0     0.000000     0.414177     0.605787  Biso 1.000000     C
    C   1.0     0.012432     0.338287     0.604744  Biso 1.000000     C
    C   1.0     0.995149     0.297134     0.650896  Biso 1.000000     C
    C   1.0     0.966138     0.335056     0.696456  Biso 1.000000     C
    C   1.0     0.954903     0.411032     0.693993  Biso 1.000000     C
    C   1.0     0.989458     0.098609     0.607472  Biso 1.000000     C
    C   1.0     0.978162     0.174510     0.606745  Biso 1.000000     C
    C   1.0     0.006454     0.216273     0.650736  Biso 1.000000     C
    C   1.0     0.046071     0.178909     0.693787  Biso 1.000000     C
    C   1.0     0.055401     0.102763     0.691322  Biso 1.000000     C
    C   1.0     0.820454     0.659275     0.641920  Biso 1.000000     C
    C   1.0     0.726065     0.687930     0.648387  Biso 1.000000     C
    C   1.0     0.657854     0.645206     0.672256  Biso 1.000000     C
    C   1.0     0.569813     0.672464     0.676630  Biso 1.000000     C
    C   1.0     0.546872     0.743022     0.657191  Biso 1.000000     C
    C   1.0     0.616526     0.785663     0.634012  Biso 1.000000     C
    C   1.0     0.704656     0.758803     0.629826  Biso 1.000000     C
    C   1.0     0.452660     0.771255     0.659854  Biso 1.000000     C
    C   1.0     0.434821     0.847555     0.662012  Biso 1.000000     C
    C   1.0     0.346239     0.874345     0.661840  Biso 1.000000     C
    C   1.0     0.272318     0.825541     0.661076  Biso 1.000000     C
    C   1.0     0.288966     0.749349     0.660182  Biso 1.000000     C
    C   1.0     0.377643     0.722839     0.658984  Biso 1.000000     C
    C   1.0     0.176217     0.852374     0.660789  Biso 1.000000     C
    C   1.0     0.076151     0.634692     0.571817  Biso 1.000000     C
    C   1.0     0.130332     0.634699     0.521443  Biso 1.000000     C
    C   1.0     0.146014     0.568752     0.493817  Biso 1.000000     C
    C   1.0     0.195901     0.568615     0.446900  Biso 1.000000     C
    C   1.0     0.230175     0.634724     0.425400  Biso 1.000000     C
    C   1.0     0.214283     0.700724     0.453431  Biso 1.000000     C
    C   1.0     0.165954     0.700709     0.501080  Biso 1.000000     C
    C   1.0     0.280345     0.633626     0.374514  Biso 1.000000     C
    C   1.0     0.335277     0.572782     0.361379  Biso 1.000000     C
    C   1.0     0.380934     0.570035     0.313102  Biso 1.000000     C
    C   1.0     0.372753     0.627694     0.276173  Biso 1.000000     C
    C   1.0     0.318729     0.688856     0.288932  Biso 1.000000     C
    C   1.0     0.273504     0.691785     0.337531  Biso 1.000000     C
    C   1.0     0.420942     0.623600     0.223905  Biso 1.000000     C
    C   1.0     0.048350     0.642574     0.733912  Biso 1.000000     C
    C   1.0     0.107616     0.643561     0.782263  Biso 1.000000     C
    C   1.0     0.164806     0.583515     0.793039  Biso 1.000000     C
    C   1.0     0.219096     0.582811     0.838266  Biso 1.000000     C
    C   1.0     0.217126     0.641761     0.874768  Biso 1.000000     C
    C   1.0     0.160081     0.702131     0.863362  Biso 1.000000     C
    C   1.0     0.106540     0.703358     0.817586  Biso 1.000000     C
    C   1.0     0.273703     0.638727     0.923381  Biso 1.000000     C
    C   1.0     0.299164     0.570143     0.945241  Biso 1.000000     C
    C   1.0     0.354535     0.566285     0.989979  Biso 1.000000     C
    C   1.0     0.386744     0.630756     0.014350  Biso 1.000000     C
    C   1.0     0.360446     0.699399     0.993664  Biso 1.000000     C
    C   1.0     0.304709     0.703192     0.948945  Biso 1.000000     C
    C   1.0     0.448369     0.627058     0.061559  Biso 1.000000     C
    C   1.0     0.501190     0.085869     0.105729  Biso 1.000000     C
    C   1.0     0.512437     0.161783     0.104697  Biso 1.000000     C
    C   1.0     0.495170     0.202791     0.150865  Biso 1.000000     C
    C   1.0     0.466216     0.164722     0.196425  Biso 1.000000     C
    C   1.0     0.455077     0.088730     0.193952  Biso 1.000000     C
    C   1.0     0.489303     0.401375     0.107463  Biso 1.000000     C
    C   1.0     0.478081     0.325457     0.106725  Biso 1.000000     C
    C   1.0     0.506372     0.283668     0.150720  Biso 1.000000     C
    C   1.0     0.545956     0.321008     0.193779  Biso 1.000000     C
    C   1.0     0.555209     0.397175     0.191324  Biso 1.000000     C
    C   1.0     0.320475     0.840613     0.141905  Biso 1.000000     C
    C   1.0     0.226040     0.811958     0.148377  Biso 1.000000     C
    C   1.0     0.157950     0.854696     0.172226  Biso 1.000000     C
    C   1.0     0.069845     0.827471     0.176618  Biso 1.000000     C
    C   1.0     0.046740     0.756933     0.157221  Biso 1.000000     C
    C   1.0     0.116275     0.714277     0.134065  Biso 1.000000     C
    C   1.0     0.204475     0.741100     0.129866  Biso 1.000000     C
    C   1.0     0.952449     0.728733     0.159904  Biso 1.000000     C
    C   1.0     0.934451     0.652437     0.162128  Biso 1.000000     C
    C   1.0     0.845811     0.625670     0.161954  Biso 1.000000     C
    C   1.0     0.772012     0.674493     0.161142  Biso 1.000000     C
    C   1.0     0.788816     0.750683     0.160189  Biso 1.000000     C
    C   1.0     0.877555     0.777172     0.158985  Biso 1.000000     C
    C   1.0     0.675884     0.647637     0.160837  Biso 1.000000     C
    C   1.0     0.576131     0.865330     0.071802  Biso 1.000000     C
    C   1.0     0.630256     0.865319     0.021407  Biso 1.000000     C
    C   1.0     0.646052     0.931229     0.993690  Biso 1.000000     C
    C   1.0     0.695940     0.931315     0.946770  Biso 1.000000     C
    C   1.0     0.730102     0.865186     0.925373  Biso 1.000000     C
    C   1.0     0.714093     0.799216     0.953507  Biso 1.000000     C
    C   1.0     0.665756     0.799291     0.001143  Biso 1.000000     C
    C   1.0     0.780300     0.866229     0.874493  Biso 1.000000     C
    C   1.0     0.835388     0.927045     0.861282  Biso 1.000000     C
    C   1.0     0.881110     0.929726     0.813019  Biso 1.000000     C
    C   1.0     0.872864     0.872019     0.776177  Biso 1.000000     C
    C   1.0     0.818661     0.810891     0.789007  Biso 1.000000     C
    C   1.0     0.773372     0.808029     0.837595  Biso 1.000000     C
    C   1.0     0.921175     0.876054     0.723932  Biso 1.000000     C
    C   1.0     0.548320     0.857312     0.233929  Biso 1.000000     C
    C   1.0     0.607577     0.856322     0.282286  Biso 1.000000     C
    C   1.0     0.664719     0.916447     0.293080  Biso 1.000000     C
    C   1.0     0.718992     0.917152     0.338313  Biso 1.000000     C
    C   1.0     0.717048     0.858127     0.374811  Biso 1.000000     C
    C   1.0     0.660051     0.797677     0.363388  Biso 1.000000     C
    C   1.0     0.606514     0.796457     0.317609  Biso 1.000000     C
    C   1.0     0.773610     0.861177     0.423433  Biso 1.000000     C
    C   1.0     0.799000     0.929770     0.445300  Biso 1.000000     C
    C   1.0     0.854399     0.933654     0.490028  Biso 1.000000     C
    C   1.0     0.886698     0.869210     0.514404  Biso 1.000000     C
    C   1.0     0.860453     0.800545     0.493700  Biso 1.000000     C
    C   1.0     0.804690     0.796727     0.448993  Biso 1.000000     C
    C   1.0     0.948392     0.872924     0.561584  Biso 1.000000     C
    N   1.0     0.527659     0.950423     0.850539  Biso 1.000000     N
    N   1.0     0.472696     0.562815     0.850959  Biso 1.000000     N
    N   1.0     0.027847     0.549605     0.350485  Biso 1.000000     N
    N   1.0     0.972475     0.937153     0.350963  Biso 1.000000     N
    N   1.0     0.972153     0.450358     0.649528  Biso 1.000000     N
    N   1.0     0.027519     0.062808     0.649052  Biso 1.000000     N
    N   1.0     0.472342     0.049545     0.149474  Biso 1.000000     N
    N   1.0     0.527307     0.437152     0.149052  Biso 1.000000     N
    O   1.0     0.663798     0.092806     0.842157  Biso 1.000000     O
    O   1.0     0.620476     0.199937     0.879816  Biso 1.000000     O
    O   1.0     0.338221     0.419724     0.854251  Biso 1.000000     O
    O   1.0     0.385661     0.308903     0.824344  Biso 1.000000     O
    O   1.0     0.476578     0.078472     0.921649  Biso 1.000000     O
    O   1.0     0.414106     0.187309     0.895918  Biso 1.000000     O
    O   1.0     0.025476     0.068057     0.282273  Biso 1.000000     O
    O   1.0     0.093768     0.172923     0.310713  Biso 1.000000     O
    O   1.0     0.453297     0.080939     0.791596  Biso 1.000000     O
    O   1.0     0.496325     0.199623     0.778451  Biso 1.000000     O
    O   1.0     0.042717     0.063115     0.416454  Biso 1.000000     O
    O   1.0     0.011203     0.184867     0.423708  Biso 1.000000     O
    O   1.0     0.163880     0.407241     0.342111  Biso 1.000000     O
    O   1.0     0.120449     0.300062     0.379830  Biso 1.000000     O
    O   1.0     0.837823     0.080159     0.354267  Biso 1.000000     O
    O   1.0     0.885365     0.191111     0.324419  Biso 1.000000     O
    O   1.0     0.976636     0.421476     0.421619  Biso 1.000000     O
    O   1.0     0.914079     0.312615     0.395938  Biso 1.000000     O
    O   1.0     0.526021     0.432317     0.782306  Biso 1.000000     O
    O   1.0     0.593815     0.327294     0.810761  Biso 1.000000     O
    O   1.0     0.953305     0.419074     0.291595  Biso 1.000000     O
    O   1.0    -0.003699     0.300454     0.278473  Biso 1.000000     O
    O   1.0     0.542766     0.436868     0.916488  Biso 1.000000     O
    O   1.0     0.511256     0.315054     0.923713  Biso 1.000000     O
    O   1.0     0.836119     0.592722     0.657901  Biso 1.000000     O
    O   1.0     0.879549     0.699902     0.620182  Biso 1.000000     O
    O   1.0     0.162178     0.919804     0.645745  Biso 1.000000     O
    O   1.0     0.114634     0.808853     0.675593  Biso 1.000000     O
    O   1.0     0.023362     0.578489     0.578394  Biso 1.000000     O
    O   1.0     0.085918     0.687351     0.604074  Biso 1.000000     O
    O   1.0     0.473973     0.567646     0.217705  Biso 1.000000     O
    O   1.0     0.406183     0.672672     0.189251  Biso 1.000000     O
    O   1.0     0.046693     0.580890     0.708418  Biso 1.000000     O
    O   1.0     0.000000     0.699511     0.721539  Biso 1.000000     O
    O   1.0     0.457232     0.563099     0.083523  Biso 1.000000     O
    O   1.0     0.488743     0.684914     0.076299  Biso 1.000000     O
    O   1.0     0.336201     0.907161     0.157856  Biso 1.000000     O
    O   1.0     0.379522     0.800028     0.120198  Biso 1.000000     O
    O   1.0     0.661778     0.580243     0.145761  Biso 1.000000     O
    O   1.0     0.614336     0.691063     0.175668  Biso 1.000000     O
    O   1.0     0.523421     0.921496     0.078364  Biso 1.000000     O
    O   1.0     0.585893     0.812659     0.104095  Biso 1.000000     O
    O   1.0     0.974527     0.931897     0.717740  Biso 1.000000     O
    O   1.0     0.906229     0.827033     0.689300  Biso 1.000000     O
    O   1.0     0.546701     0.919028     0.208417  Biso 1.000000     O
    O   1.0     0.503672     0.800344     0.221561  Biso 1.000000     O
    O   1.0     0.957280     0.936849     0.583559  Biso 1.000000     O
    O   1.0     0.988796     0.815098     0.576304  Biso 1.000000     O
   Zn   1.0     0.535246     0.065347     0.851929  Biso 1.000000    Zn
   Zn   1.0     0.504164     0.256049     0.851611  Biso 1.000000    Zn
   Zn   1.0     0.468369     0.447363     0.851789  Biso 1.000000    Zn
   Zn   1.0     0.035336     0.434654     0.351902  Biso 1.000000    Zn
   Zn   1.0     0.004113     0.243933     0.351613  Biso 1.000000    Zn
   Zn   1.0     0.968102     0.052664     0.351809  Biso 1.000000    Zn
   Zn   1.0     0.964662     0.565311     0.648111  Biso 1.000000    Zn
   Zn   1.0     0.995886     0.756033     0.648399  Biso 1.000000    Zn
   Zn   1.0     0.031897     0.947300     0.648203  Biso 1.000000    Zn
   Zn   1.0     0.464752     0.934620     0.148084  Biso 1.000000    Zn
   Zn   1.0     0.495834     0.743918     0.148402  Biso 1.000000    Zn
   Zn   1.0     0.531629     0.552605     0.148222  Biso 1.000000    Zn
