#======================================================================

# CRYSTAL DATA

#----------------------------------------------------------------------

data_VESTA_phase_1


_pd_phase_name                         MOF
_cell_length_a                         14.42900
_cell_length_b                         14.28200
_cell_length_c                         19.87600
_cell_angle_alpha                      89.97500
_cell_angle_beta                       90.04400
_cell_angle_gamma                      90.00000
_symmetry_space_group_name_H-M         "P 1"
_symmetry_Int_Tables_number            1

loop_
_symmetry_equiv_pos_as_xyz
   "x, y, z"

loop_
   _atom_site_label
   _atom_site_occupancy
   _atom_site_fract_x
   _atom_site_fract_y
   _atom_site_fract_z
   _atom_site_adp_type
   _atom_site_B_iso_or_equiv
   _atom_site_type_symbol
    H   1.0     0.393798     0.108400     0.950328  Biso 1.000000     H
    H   1.0     0.394691     0.608872     0.950918  Biso 1.000000     H
    H   1.0     0.894673     0.108346     0.948804  Biso 1.000000     H
    H   1.0     0.894393     0.609554     0.948548  Biso 1.000000     H
    H   1.0     0.105214     0.390691     0.948973  Biso 1.000000     H
    H   1.0     0.104905     0.888929     0.948553  Biso 1.000000     H
    H   1.0     0.605810     0.390293     0.950505  Biso 1.000000     H
    H   1.0     0.605982     0.890865     0.950682  Biso 1.000000     H
    H   1.0     0.140249     0.144511     0.450604  Biso 1.000000     H
    H   1.0     0.140523     0.643592     0.449450  Biso 1.000000     H
    H   1.0     0.640151     0.144219     0.450312  Biso 1.000000     H
    H   1.0     0.642003     0.643296     0.448772  Biso 1.000000     H
    H   1.0     0.360075     0.354158     0.450492  Biso 1.000000     H
    H   1.0     0.358071     0.855627     0.449302  Biso 1.000000     H
    H   1.0     0.859924     0.353907     0.450015  Biso 1.000000     H
    H   1.0     0.859086     0.855853     0.448401  Biso 1.000000     H
    H   1.0     0.356098     0.358889     0.551412  Biso 1.000000     H
    H   1.0     0.355027     0.859343     0.550403  Biso 1.000000     H
    H   1.0     0.855479     0.358322     0.550983  Biso 1.000000     H
    H   1.0     0.855739     0.859224     0.549410  Biso 1.000000     H
    H   1.0     0.144800     0.140463     0.551442  Biso 1.000000     H
    H   1.0     0.144232     0.640457     0.550436  Biso 1.000000     H
    H   1.0     0.644429     0.139673     0.551238  Biso 1.000000     H
    H   1.0     0.644288     0.640973     0.549539  Biso 1.000000     H
    H   1.0     0.110009     0.395252     0.049571  Biso 1.000000     H
    H   1.0     0.109638     0.893707     0.049713  Biso 1.000000     H
    H   1.0     0.609352     0.393154     0.051419  Biso 1.000000     H
    H   1.0     0.608068     0.893574     0.051631  Biso 1.000000     H
    H   1.0     0.390884     0.106012     0.051278  Biso 1.000000     H
    H   1.0     0.391316     0.604725     0.051799  Biso 1.000000     H
    H   1.0     0.890039     0.103545     0.049473  Biso 1.000000     H
    H   1.0     0.889991     0.604654     0.049714  Biso 1.000000     H
    C   1.0     0.441374     0.059523     0.926630  Biso 1.000000     C
    C   1.0     0.442071     0.559970     0.927030  Biso 1.000000     C
    C   1.0     0.941750     0.059075     0.925011  Biso 1.000000     C
    C   1.0     0.941628     0.560311     0.924868  Biso 1.000000     C
    C   1.0     0.443404     0.057438     0.856687  Biso 1.000000     C
    C   1.0     0.444057     0.558279     0.857065  Biso 1.000000     C
    C   1.0     0.943559     0.057193     0.855061  Biso 1.000000     C
    C   1.0     0.943557     0.558065     0.854887  Biso 1.000000     C
    C   1.0     0.384183     0.118214     0.811580  Biso 1.000000     C
    C   1.0     0.384533     0.618646     0.811881  Biso 1.000000     C
    C   1.0     0.884356     0.118366     0.810250  Biso 1.000000     C
    C   1.0     0.884308     0.618480     0.809498  Biso 1.000000     C
    C   1.0     0.057984     0.439852     0.925140  Biso 1.000000     C
    C   1.0     0.057741     0.938307     0.924864  Biso 1.000000     C
    C   1.0     0.558587     0.439594     0.926804  Biso 1.000000     C
    C   1.0     0.558406     0.939658     0.926798  Biso 1.000000     C
    C   1.0     0.056160     0.441935     0.855211  Biso 1.000000     C
    C   1.0     0.055771     0.940659     0.854896  Biso 1.000000     C
    C   1.0     0.556793     0.442154     0.856851  Biso 1.000000     C
    C   1.0     0.556493     0.941586     0.856809  Biso 1.000000     C
    C   1.0     0.115746     0.381433     0.810413  Biso 1.000000     C
    C   1.0     0.115044     0.880076     0.809797  Biso 1.000000     C
    C   1.0     0.616024     0.381746     0.811606  Biso 1.000000     C
    C   1.0     0.615925     0.881164     0.811570  Biso 1.000000     C
    C   1.0     0.189474     0.191593     0.426762  Biso 1.000000     C
    C   1.0     0.189408     0.691061     0.425631  Biso 1.000000     C
    C   1.0     0.689655     0.190987     0.426471  Biso 1.000000     C
    C   1.0     0.690787     0.690844     0.424951  Biso 1.000000     C
    C   1.0     0.191371     0.193532     0.356772  Biso 1.000000     C
    C   1.0     0.191525     0.692740     0.355625  Biso 1.000000     C
    C   1.0     0.692021     0.192432     0.356529  Biso 1.000000     C
    C   1.0     0.692919     0.692430     0.355008  Biso 1.000000     C
    C   1.0     0.130940     0.134251     0.311410  Biso 1.000000     C
    C   1.0     0.131337     0.632938     0.310392  Biso 1.000000     C
    C   1.0     0.631315     0.133075     0.311605  Biso 1.000000     C
    C   1.0     0.632498     0.632482     0.310239  Biso 1.000000     C
    C   1.0     0.310515     0.307335     0.426745  Biso 1.000000     C
    C   1.0     0.309172     0.808061     0.425587  Biso 1.000000     C
    C   1.0     0.810653     0.306753     0.426268  Biso 1.000000     C
    C   1.0     0.810324     0.808103     0.424724  Biso 1.000000     C
    C   1.0     0.308063     0.305611     0.356816  Biso 1.000000     C
    C   1.0     0.307073     0.806006     0.355630  Biso 1.000000     C
    C   1.0     0.808639     0.304582     0.356275  Biso 1.000000     C
    C   1.0     0.808287     0.805873     0.354751  Biso 1.000000     C
    C   1.0     0.368854     0.364597     0.311758  Biso 1.000000     C
    C   1.0     0.367549     0.865613     0.310686  Biso 1.000000     C
    C   1.0     0.869064     0.363745     0.310854  Biso 1.000000     C
    C   1.0     0.868482     0.865459     0.309489  Biso 1.000000     C
    C   1.0     0.308792     0.309795     0.575205  Biso 1.000000     C
    C   1.0     0.307904     0.810064     0.574200  Biso 1.000000     C
    C   1.0     0.808062     0.309346     0.574770  Biso 1.000000     C
    C   1.0     0.808277     0.810319     0.573234  Biso 1.000000     C
    C   1.0     0.306961     0.307666     0.645188  Biso 1.000000     C
    C   1.0     0.306280     0.807803     0.644208  Biso 1.000000     C
    C   1.0     0.806038     0.307438     0.644711  Biso 1.000000     C
    C   1.0     0.806156     0.808524     0.643189  Biso 1.000000     C
    C   1.0     0.366194     0.368092     0.690588  Biso 1.000000     C
    C   1.0     0.365408     0.868571     0.689513  Biso 1.000000     C
    C   1.0     0.865707     0.367797     0.689596  Biso 1.000000     C
    C   1.0     0.865441     0.869171     0.688291  Biso 1.000000     C
    C   1.0     0.192173     0.189548     0.575176  Biso 1.000000     C
    C   1.0     0.191637     0.689509     0.574180  Biso 1.000000     C
    C   1.0     0.691612     0.188990     0.574942  Biso 1.000000     C
    C   1.0     0.691619     0.690071     0.573320  Biso 1.000000     C
    C   1.0     0.194071     0.191749     0.645111  Biso 1.000000     C
    C   1.0     0.193802     0.691412     0.644133  Biso 1.000000     C
    C   1.0     0.693336     0.191416     0.644929  Biso 1.000000     C
    C   1.0     0.693278     0.692495     0.643285  Biso 1.000000     C
    C   1.0     0.134563     0.131266     0.690038  Biso 1.000000     C
    C   1.0     0.134556     0.630508     0.689037  Biso 1.000000     C
    C   1.0     0.634258     0.130841     0.690255  Biso 1.000000     C
    C   1.0     0.633897     0.632248     0.688641  Biso 1.000000     C
    C   1.0     0.060502     0.441998     0.073408  Biso 1.000000     C
    C   1.0     0.060424     0.940862     0.073463  Biso 1.000000     C
    C   1.0     0.560319     0.440389     0.075275  Biso 1.000000     C
    C   1.0     0.559252     0.941218     0.075293  Biso 1.000000     C
    C   1.0     0.058231     0.443487     0.143368  Biso 1.000000     C
    C   1.0     0.058425     0.942912     0.143427  Biso 1.000000     C
    C   1.0     0.558091     0.441769     0.145246  Biso 1.000000     C
    C   1.0     0.557092     0.943188     0.145235  Biso 1.000000     C
    C   1.0     0.119056     0.384494     0.188596  Biso 1.000000     C
    C   1.0     0.118866     0.883500     0.188651  Biso 1.000000     C
    C   1.0     0.618376     0.381849     0.190281  Biso 1.000000     C
    C   1.0     0.617498     0.883487     0.190213  Biso 1.000000     C
    C   1.0     0.439638     0.058391     0.075130  Biso 1.000000     C
    C   1.0     0.440289     0.557161     0.075461  Biso 1.000000     C
    C   1.0     0.939550     0.056742     0.073330  Biso 1.000000     C
    C   1.0     0.939369     0.557609     0.073476  Biso 1.000000     C
    C   1.0     0.441687     0.056582     0.145118  Biso 1.000000     C
    C   1.0     0.442430     0.554926     0.145405  Biso 1.000000     C
    C   1.0     0.942007     0.055282     0.143287  Biso 1.000000     C
    C   1.0     0.941509     0.555488     0.143431  Biso 1.000000     C
    C   1.0     0.381387     0.116263     0.190234  Biso 1.000000     C
    C   1.0     0.382079     0.614451     0.190470  Biso 1.000000     C
    C   1.0     0.881420     0.114611     0.188345  Biso 1.000000     C
    C   1.0     0.880977     0.614651     0.188583  Biso 1.000000     C
    C   1.0    -0.000194    -0.001365     0.961779  Biso 1.000000     C
    C   1.0    -0.000218     0.500111     0.961835  Biso 1.000000     C
    C   1.0     0.499756    -0.000433     0.963556  Biso 1.000000     C
    C   1.0     0.500331     0.499555     0.963752  Biso 1.000000     C
    C   1.0     0.250078     0.249498     0.463582  Biso 1.000000     C
    C   1.0     0.249365     0.749617     0.462486  Biso 1.000000     C
    C   1.0     0.750133     0.248958     0.463211  Biso 1.000000     C
    C   1.0     0.750454     0.749679     0.461670  Biso 1.000000     C
    C   1.0     0.250422     0.249636     0.538358  Biso 1.000000     C
    C   1.0     0.249648     0.749813     0.537312  Biso 1.000000     C
    C   1.0     0.749856     0.249106     0.538000  Biso 1.000000     C
    C   1.0     0.750110     0.750016     0.536445  Biso 1.000000     C
    C   1.0    -0.000072    -0.001281     0.036567  Biso 1.000000     C
    C   1.0    -0.000146     0.499892     0.036617  Biso 1.000000     C
    C   1.0     0.499564    -0.000185     0.038365  Biso 1.000000     C
    C   1.0     0.500340     0.499026     0.038542  Biso 1.000000     C
    N   1.0    -0.000358    -0.000929     0.821660  Biso 1.000000     N
    N   1.0    -0.000130     0.499876     0.821751  Biso 1.000000     N
    N   1.0     0.499895    -0.000526     0.823490  Biso 1.000000     N
    N   1.0     0.500535     0.500479     0.823682  Biso 1.000000     N
    N   1.0     0.249532     0.249806     0.323526  Biso 1.000000     N
    N   1.0     0.249391     0.749296     0.322315  Biso 1.000000     N
    N   1.0     0.750452     0.248192     0.323126  Biso 1.000000     N
    N   1.0     0.750542     0.749030     0.321585  Biso 1.000000     N
    N   1.0     0.250479     0.249675     0.678421  Biso 1.000000     N
    N   1.0     0.250196     0.749392     0.677480  Biso 1.000000     N
    N   1.0     0.749573     0.249696     0.678133  Biso 1.000000     N
    N   1.0     0.749662     0.750648     0.676501  Biso 1.000000     N
    N   1.0     0.000416    -0.000656     0.176635  Biso 1.000000     N
    N   1.0    -0.000278     0.499272     0.176677  Biso 1.000000     N
    N   1.0     0.499422    -0.000109     0.178475  Biso 1.000000     N
    N   1.0     0.500231     0.498190     0.178606  Biso 1.000000     N
    O   1.0     0.327749     0.173226     0.841670  Biso 1.000000     O
    O   1.0     0.328398     0.674316     0.841603  Biso 1.000000     O
    O   1.0     0.828187     0.173276     0.840748  Biso 1.000000     O
    O   1.0     0.828426     0.674374     0.839315  Biso 1.000000     O
    O   1.0     0.394592     0.110143     0.749043  Biso 1.000000     O
    O   1.0     0.394312     0.609410     0.749330  Biso 1.000000     O
    O   1.0     0.894475     0.110627     0.747667  Biso 1.000000     O
    O   1.0     0.894218     0.609136     0.747018  Biso 1.000000     O
    O   1.0     0.171440     0.325872     0.840857  Biso 1.000000     O
    O   1.0     0.170857     0.824371     0.839997  Biso 1.000000     O
    O   1.0     0.671831     0.325760     0.841568  Biso 1.000000     O
    O   1.0     0.672847     0.826183     0.841268  Biso 1.000000     O
    O   1.0     0.106419     0.390367     0.747814  Biso 1.000000     O
    O   1.0     0.105397     0.889078     0.747253  Biso 1.000000     O
    O   1.0     0.606198     0.391075     0.749114  Biso 1.000000     O
    O   1.0     0.605193     0.889518     0.749043  Biso 1.000000     O
    O   1.0     0.074921     0.078262     0.341050  Biso 1.000000     O
    O   1.0     0.075297     0.577218     0.340248  Biso 1.000000     O
    O   1.0     0.574770     0.078235     0.341789  Biso 1.000000     O
    O   1.0     0.577372     0.576499     0.340789  Biso 1.000000     O
    O   1.0     0.140533     0.144043     0.248912  Biso 1.000000     O
    O   1.0     0.140987     0.642224     0.247843  Biso 1.000000     O
    O   1.0     0.640967     0.141647     0.249018  Biso 1.000000     O
    O   1.0     0.640928     0.641928     0.247646  Biso 1.000000     O
    O   1.0     0.425303     0.419698     0.341807  Biso 1.000000     O
    O   1.0     0.422907     0.921580     0.341041  Biso 1.000000     O
    O   1.0     0.925136     0.419653     0.340550  Biso 1.000000     O
    O   1.0     0.924357     0.921306     0.339410  Biso 1.000000     O
    O   1.0     0.359366     0.355386     0.249198  Biso 1.000000     O
    O   1.0     0.358926     0.855963     0.248113  Biso 1.000000     O
    O   1.0     0.859447     0.353935     0.248357  Biso 1.000000     O
    O   1.0     0.859053     0.855874     0.246965  Biso 1.000000     O
    O   1.0     0.422095     0.424047     0.660906  Biso 1.000000     O
    O   1.0     0.421409     0.924432     0.659759  Biso 1.000000     O
    O   1.0     0.921631     0.423136     0.659223  Biso 1.000000     O
    O   1.0     0.921337     0.924939     0.658287  Biso 1.000000     O
    O   1.0     0.356161     0.358614     0.753094  Biso 1.000000     O
    O   1.0     0.355357     0.859555     0.752045  Biso 1.000000     O
    O   1.0     0.856307     0.358916     0.752183  Biso 1.000000     O
    O   1.0     0.855680     0.860132     0.750810  Biso 1.000000     O
    O   1.0     0.078606     0.076007     0.659561  Biso 1.000000     O
    O   1.0     0.078055     0.575722     0.658701  Biso 1.000000     O
    O   1.0     0.578359     0.074938     0.660399  Biso 1.000000     O
    O   1.0     0.577749     0.576342     0.659066  Biso 1.000000     O
    O   1.0     0.144196     0.139872     0.752590  Biso 1.000000     O
    O   1.0     0.144836     0.638401     0.751615  Biso 1.000000     O
    O   1.0     0.644274     0.140022     0.752755  Biso 1.000000     O
    O   1.0     0.643873     0.641709     0.751162  Biso 1.000000     O
    O   1.0     0.175480     0.329063     0.158938  Biso 1.000000     O
    O   1.0     0.174685     0.827601     0.158711  Biso 1.000000     O
    O   1.0     0.674053     0.326066     0.160175  Biso 1.000000     O
    O   1.0     0.672721     0.827510     0.159798  Biso 1.000000     O
    O   1.0     0.109491     0.394032     0.251142  Biso 1.000000     O
    O   1.0     0.109491     0.893065     0.251158  Biso 1.000000     O
    O   1.0     0.609138     0.391063     0.252838  Biso 1.000000     O
    O   1.0     0.608952     0.893062     0.252779  Biso 1.000000     O
    O   1.0     0.325449     0.172020     0.160261  Biso 1.000000     O
    O   1.0     0.326605     0.670403     0.160191  Biso 1.000000     O
    O   1.0     0.824283     0.169154     0.158455  Biso 1.000000     O
    O   1.0     0.825034     0.670391     0.158500  Biso 1.000000     O
    O   1.0     0.390875     0.106898     0.252783  Biso 1.000000     O
    O   1.0     0.391030     0.604852     0.253015  Biso 1.000000     O
    O   1.0     0.891670     0.106279     0.250924  Biso 1.000000     O
    O   1.0     0.890391     0.605081     0.251093  Biso 1.000000     O
   Zn   1.0    -0.000158    -0.000091     0.719753  Biso 1.000000    Zn
   Zn   1.0     0.000237     0.499027     0.719738  Biso 1.000000    Zn
   Zn   1.0     0.499803    -0.000319     0.721648  Biso 1.000000    Zn
   Zn   1.0     0.500043     0.501469     0.721664  Biso 1.000000    Zn
   Zn   1.0     0.249946     0.250743     0.221560  Biso 1.000000    Zn
   Zn   1.0     0.249910     0.749052     0.220239  Biso 1.000000    Zn
   Zn   1.0     0.750008     0.247171     0.221155  Biso 1.000000    Zn
   Zn   1.0     0.749930     0.748974     0.219688  Biso 1.000000    Zn
   Zn   1.0     0.250358     0.250216     0.780399  Biso 1.000000    Zn
   Zn   1.0     0.250099     0.748999     0.779499  Biso 1.000000    Zn
   Zn   1.0     0.750028     0.250435     0.780233  Biso 1.000000    Zn
   Zn   1.0     0.749740     0.750312     0.778493  Biso 1.000000    Zn
   Zn   1.0     0.000244     0.000102     0.278547  Biso 1.000000    Zn
   Zn   1.0     0.000033     0.498252     0.278689  Biso 1.000000    Zn
   Zn   1.0     0.499586    -0.000144     0.280402  Biso 1.000000    Zn
   Zn   1.0     0.500425     0.498063     0.280468  Biso 1.000000    Zn
