#======================================================================

# CRYSTAL DATA

#----------------------------------------------------------------------

data_VESTA_phase_1


_pd_phase_name                         MOF
_cell_length_a                         14.43400
_cell_length_b                         14.33100
_cell_length_c                         19.83100
_cell_angle_alpha                      90.00000
_cell_angle_beta                       90.00000
_cell_angle_gamma                      90.00900
_symmetry_space_group_name_H-M         "P 1"
_symmetry_Int_Tables_number            1

loop_
_symmetry_equiv_pos_as_xyz
   "x, y, z"

loop_
   _atom_site_label
   _atom_site_occupancy
   _atom_site_fract_x
   _atom_site_fract_y
   _atom_site_fract_z
   _atom_site_adp_type
   _atom_site_B_iso_or_equiv
   _atom_site_type_symbol
    H   1.0     0.393414     0.392125     0.949429  Biso 1.000000     H
    H   1.0     0.393137     0.892420     0.949404  Biso 1.000000     H
    H   1.0     0.893444     0.392088     0.949433  Biso 1.000000     H
    H   1.0     0.892661     0.892900     0.949386  Biso 1.000000     H
    H   1.0     0.107322     0.107117     0.949386  Biso 1.000000     H
    H   1.0     0.106537     0.607932     0.949434  Biso 1.000000     H
    H   1.0     0.606846     0.107599     0.949405  Biso 1.000000     H
    H   1.0     0.606568     0.607893     0.949429  Biso 1.000000     H
    H   1.0     0.356643     0.142242     0.449400  Biso 1.000000     H
    H   1.0     0.356599     0.642222     0.449434  Biso 1.000000     H
    H   1.0     0.856990     0.142565     0.449404  Biso 1.000000     H
    H   1.0     0.856727     0.642332     0.449425  Biso 1.000000     H
    H   1.0     0.143256     0.357690     0.449424  Biso 1.000000     H
    H   1.0     0.142998     0.857454     0.449403  Biso 1.000000     H
    H   1.0     0.643385     0.357794     0.449435  Biso 1.000000     H
    H   1.0     0.643341     0.857779     0.449400  Biso 1.000000     H
    H   1.0     0.356641     0.142241     0.550607  Biso 1.000000     H
    H   1.0     0.356599     0.642222     0.550572  Biso 1.000000     H
    H   1.0     0.856988     0.142563     0.550604  Biso 1.000000     H
    H   1.0     0.856728     0.642332     0.550582  Biso 1.000000     H
    H   1.0     0.143255     0.357690     0.550582  Biso 1.000000     H
    H   1.0     0.142997     0.857454     0.550603  Biso 1.000000     H
    H   1.0     0.643385     0.357794     0.550572  Biso 1.000000     H
    H   1.0     0.643340     0.857779     0.550607  Biso 1.000000     H
    H   1.0     0.393417     0.392125     0.050577  Biso 1.000000     H
    H   1.0     0.393138     0.892421     0.050602  Biso 1.000000     H
    H   1.0     0.893446     0.392088     0.050573  Biso 1.000000     H
    H   1.0     0.892662     0.892901     0.050620  Biso 1.000000     H
    H   1.0     0.107324     0.107118     0.050621  Biso 1.000000     H
    H   1.0     0.106538     0.607933     0.050572  Biso 1.000000     H
    H   1.0     0.606847     0.107600     0.050602  Biso 1.000000     H
    H   1.0     0.606569     0.607894     0.050578  Biso 1.000000     H
    C   1.0    -0.000004     0.000002     0.962531  Biso 1.000000     C
    C   1.0    -0.000001     0.500009     0.962545  Biso 1.000000     C
    C   1.0     0.499991    -0.000002     0.962536  Biso 1.000000     C
    C   1.0     0.499993     0.500007     0.962543  Biso 1.000000     C
    C   1.0     0.249939     0.249960     0.462531  Biso 1.000000     C
    C   1.0     0.249815     0.749852     0.462533  Biso 1.000000     C
    C   1.0     0.750173     0.250164     0.462533  Biso 1.000000     C
    C   1.0     0.750043     0.750065     0.462532  Biso 1.000000     C
    C   1.0     0.249938     0.249958     0.537475  Biso 1.000000     C
    C   1.0     0.249815     0.749854     0.537473  Biso 1.000000     C
    C   1.0     0.750171     0.250162     0.537474  Biso 1.000000     C
    C   1.0     0.750043     0.750065     0.537475  Biso 1.000000     C
    C   1.0     0.000002    -0.000002     0.037476  Biso 1.000000     C
    C   1.0    -0.000000     0.500012     0.037462  Biso 1.000000     C
    C   1.0     0.499990     0.000002     0.037471  Biso 1.000000     C
    C   1.0     0.499990     0.500013     0.037463  Biso 1.000000     C
    C   1.0     0.441284     0.440523     0.925624  Biso 1.000000     C
    C   1.0     0.441120     0.940708     0.925603  Biso 1.000000     C
    C   1.0     0.941297     0.440502     0.925628  Biso 1.000000     C
    C   1.0     0.940842     0.940992     0.925588  Biso 1.000000     C
    C   1.0     0.443342     0.442479     0.855514  Biso 1.000000     C
    C   1.0     0.443142     0.942699     0.855487  Biso 1.000000     C
    C   1.0     0.943349     0.442464     0.855519  Biso 1.000000     C
    C   1.0     0.942813     0.943008     0.855466  Biso 1.000000     C
    C   1.0     0.383970     0.382085     0.810388  Biso 1.000000     C
    C   1.0     0.383548     0.882529     0.810347  Biso 1.000000     C
    C   1.0     0.883980     0.382064     0.810397  Biso 1.000000     C
    C   1.0     0.882794     0.883115     0.810404  Biso 1.000000     C
    C   1.0     0.059143     0.059023     0.925588  Biso 1.000000     C
    C   1.0     0.058686     0.559516     0.925629  Biso 1.000000     C
    C   1.0     0.558861     0.059313     0.925604  Biso 1.000000     C
    C   1.0     0.558697     0.559497     0.925624  Biso 1.000000     C
    C   1.0     0.057175     0.057005     0.855466  Biso 1.000000     C
    C   1.0     0.056627     0.557562     0.855520  Biso 1.000000     C
    C   1.0     0.556839     0.057322     0.855488  Biso 1.000000     C
    C   1.0     0.556635     0.557545     0.855514  Biso 1.000000     C
    C   1.0     0.117187     0.116905     0.810405  Biso 1.000000     C
    C   1.0     0.116006     0.617954     0.810398  Biso 1.000000     C
    C   1.0     0.616435     0.117493     0.810349  Biso 1.000000     C
    C   1.0     0.616017     0.617929     0.810388  Biso 1.000000     C
    C   1.0     0.308777     0.190634     0.425598  Biso 1.000000     C
    C   1.0     0.308614     0.690470     0.425609  Biso 1.000000     C
    C   1.0     0.809042     0.190871     0.425599  Biso 1.000000     C
    C   1.0     0.808753     0.690596     0.425604  Biso 1.000000     C
    C   1.0     0.306728     0.192577     0.355475  Biso 1.000000     C
    C   1.0     0.306580     0.692461     0.355499  Biso 1.000000     C
    C   1.0     0.806918     0.192747     0.355477  Biso 1.000000     C
    C   1.0     0.806675     0.692547     0.355493  Biso 1.000000     C
    C   1.0     0.366205     0.132229     0.310368  Biso 1.000000     C
    C   1.0     0.366119     0.632275     0.310346  Biso 1.000000     C
    C   1.0     0.866395     0.132409     0.310361  Biso 1.000000     C
    C   1.0     0.866153     0.632316     0.310334  Biso 1.000000     C
    C   1.0     0.191227     0.309425     0.425602  Biso 1.000000     C
    C   1.0     0.190947     0.809148     0.425599  Biso 1.000000     C
    C   1.0     0.691374     0.309548     0.425611  Biso 1.000000     C
    C   1.0     0.691203     0.809386     0.425596  Biso 1.000000     C
    C   1.0     0.193313     0.307476     0.355490  Biso 1.000000     C
    C   1.0     0.193066     0.807269     0.355477  Biso 1.000000     C
    C   1.0     0.693403     0.307554     0.355501  Biso 1.000000     C
    C   1.0     0.693260     0.807445     0.355473  Biso 1.000000     C
    C   1.0     0.133830     0.367705     0.310331  Biso 1.000000     C
    C   1.0     0.133593     0.867611     0.310360  Biso 1.000000     C
    C   1.0     0.633868     0.367742     0.310349  Biso 1.000000     C
    C   1.0     0.633779     0.867790     0.310368  Biso 1.000000     C
    C   1.0     0.308775     0.190632     0.574409  Biso 1.000000     C
    C   1.0     0.308614     0.690471     0.574397  Biso 1.000000     C
    C   1.0     0.809038     0.190868     0.574408  Biso 1.000000     C
    C   1.0     0.808756     0.690599     0.574403  Biso 1.000000     C
    C   1.0     0.306731     0.192582     0.644532  Biso 1.000000     C
    C   1.0     0.306574     0.692456     0.644507  Biso 1.000000     C
    C   1.0     0.806926     0.192757     0.644530  Biso 1.000000     C
    C   1.0     0.806664     0.692537     0.644514  Biso 1.000000     C
    C   1.0     0.366200     0.132226     0.689638  Biso 1.000000     C
    C   1.0     0.366120     0.632278     0.689659  Biso 1.000000     C
    C   1.0     0.866388     0.132403     0.689647  Biso 1.000000     C
    C   1.0     0.866158     0.632320     0.689673  Biso 1.000000     C
    C   1.0     0.191225     0.309423     0.574404  Biso 1.000000     C
    C   1.0     0.190947     0.809149     0.574406  Biso 1.000000     C
    C   1.0     0.691371     0.309545     0.574396  Biso 1.000000     C
    C   1.0     0.691206     0.809389     0.574410  Biso 1.000000     C
    C   1.0     0.193316     0.307480     0.644516  Biso 1.000000     C
    C   1.0     0.193060     0.807264     0.644529  Biso 1.000000     C
    C   1.0     0.693411     0.307564     0.644506  Biso 1.000000     C
    C   1.0     0.693250     0.807436     0.644533  Biso 1.000000     C
    C   1.0     0.133826     0.367702     0.689675  Biso 1.000000     C
    C   1.0     0.133595     0.867614     0.689646  Biso 1.000000     C
    C   1.0     0.633862     0.367737     0.689659  Biso 1.000000     C
    C   1.0     0.633782     0.867794     0.689639  Biso 1.000000     C
    C   1.0     0.441289     0.440520     0.074381  Biso 1.000000     C
    C   1.0     0.441124     0.940706     0.074403  Biso 1.000000     C
    C   1.0     0.941297     0.440504     0.074378  Biso 1.000000     C
    C   1.0     0.940842     0.940995     0.074419  Biso 1.000000     C
    C   1.0     0.443348     0.442473     0.144491  Biso 1.000000     C
    C   1.0     0.443145     0.942697     0.144519  Biso 1.000000     C
    C   1.0     0.943355     0.442460     0.144487  Biso 1.000000     C
    C   1.0     0.942810     0.943013     0.144541  Biso 1.000000     C
    C   1.0     0.383968     0.382086     0.189617  Biso 1.000000     C
    C   1.0     0.383548     0.882530     0.189659  Biso 1.000000     C
    C   1.0     0.883979     0.382067     0.189610  Biso 1.000000     C
    C   1.0     0.882797     0.883113     0.189602  Biso 1.000000     C
    C   1.0     0.059143     0.059025     0.074419  Biso 1.000000     C
    C   1.0     0.058687     0.559518     0.074378  Biso 1.000000     C
    C   1.0     0.558864     0.059312     0.074403  Biso 1.000000     C
    C   1.0     0.558701     0.559494     0.074383  Biso 1.000000     C
    C   1.0     0.057171     0.057010     0.144541  Biso 1.000000     C
    C   1.0     0.056633     0.557559     0.144487  Biso 1.000000     C
    C   1.0     0.556841     0.057321     0.144519  Biso 1.000000     C
    C   1.0     0.556642     0.557539     0.144493  Biso 1.000000     C
    C   1.0     0.117191     0.116902     0.189602  Biso 1.000000     C
    C   1.0     0.116003     0.617958     0.189608  Biso 1.000000     C
    C   1.0     0.616434     0.117495     0.189659  Biso 1.000000     C
    C   1.0     0.616014     0.617932     0.189620  Biso 1.000000     C
    N   1.0    -0.000001    -0.000000     0.822057  Biso 1.000000     N
    N   1.0     0.000001     0.500009     0.822129  Biso 1.000000     N
    N   1.0     0.499990     0.000001     0.822092  Biso 1.000000     N
    N   1.0     0.499993     0.500008     0.822124  Biso 1.000000     N
    N   1.0     0.250113     0.250115     0.322087  Biso 1.000000     N
    N   1.0     0.249790     0.749832     0.322095  Biso 1.000000     N
    N   1.0     0.750198     0.250190     0.322095  Biso 1.000000     N
    N   1.0     0.749870     0.749900     0.322087  Biso 1.000000     N
    N   1.0     0.250107     0.250112     0.677920  Biso 1.000000     N
    N   1.0     0.249792     0.749835     0.677911  Biso 1.000000     N
    N   1.0     0.750189     0.250183     0.677912  Biso 1.000000     N
    N   1.0     0.749877     0.749907     0.677920  Biso 1.000000     N
    N   1.0    -0.000000    -0.000001     0.177949  Biso 1.000000     N
    N   1.0    -0.000002     0.500013     0.177877  Biso 1.000000     N
    N   1.0     0.499991     0.000001     0.177915  Biso 1.000000     N
    N   1.0     0.499993     0.500007     0.177882  Biso 1.000000     N
    O   1.0     0.328144     0.326685     0.840721  Biso 1.000000     O
    O   1.0     0.327876     0.826970     0.840672  Biso 1.000000     O
    O   1.0     0.828163     0.326653     0.840731  Biso 1.000000     O
    O   1.0     0.827693     0.827078     0.840831  Biso 1.000000     O
    O   1.0     0.393726     0.390864     0.747700  Biso 1.000000     O
    O   1.0     0.393088     0.891586     0.747666  Biso 1.000000     O
    O   1.0     0.893724     0.390853     0.747708  Biso 1.000000     O
    O   1.0     0.891465     0.892728     0.747699  Biso 1.000000     O
    O   1.0     0.172292     0.172939     0.840832  Biso 1.000000     O
    O   1.0     0.171819     0.673369     0.840732  Biso 1.000000     O
    O   1.0     0.672108     0.173050     0.840675  Biso 1.000000     O
    O   1.0     0.671837     0.673334     0.840722  Biso 1.000000     O
    O   1.0     0.108521     0.107288     0.747700  Biso 1.000000     O
    O   1.0     0.106260     0.609168     0.747710  Biso 1.000000     O
    O   1.0     0.606888     0.108446     0.747668  Biso 1.000000     O
    O   1.0     0.606256     0.609154     0.747700  Biso 1.000000     O
    O   1.0     0.422460     0.077392     0.340795  Biso 1.000000     O
    O   1.0     0.421729     0.576590     0.340591  Biso 1.000000     O
    O   1.0     0.922815     0.077715     0.340772  Biso 1.000000     O
    O   1.0     0.921728     0.576594     0.340581  Biso 1.000000     O
    O   1.0     0.355992     0.140334     0.247687  Biso 1.000000     O
    O   1.0     0.356590     0.641441     0.247657  Biso 1.000000     O
    O   1.0     0.856033     0.140385     0.247687  Biso 1.000000     O
    O   1.0     0.856648     0.641501     0.247645  Biso 1.000000     O
    O   1.0     0.078256     0.423431     0.340574  Biso 1.000000     O
    O   1.0     0.077171     0.922302     0.340772  Biso 1.000000     O
    O   1.0     0.578256     0.423423     0.340597  Biso 1.000000     O
    O   1.0     0.577523     0.922629     0.340794  Biso 1.000000     O
    O   1.0     0.143341     0.358518     0.247642  Biso 1.000000     O
    O   1.0     0.143952     0.859633     0.247686  Biso 1.000000     O
    O   1.0     0.643392     0.358577     0.247659  Biso 1.000000     O
    O   1.0     0.643994     0.859685     0.247687  Biso 1.000000     O
    O   1.0     0.422460     0.077393     0.659211  Biso 1.000000     O
    O   1.0     0.421727     0.576591     0.659413  Biso 1.000000     O
    O   1.0     0.922815     0.077716     0.659236  Biso 1.000000     O
    O   1.0     0.921727     0.576592     0.659427  Biso 1.000000     O
    O   1.0     0.355991     0.140335     0.752319  Biso 1.000000     O
    O   1.0     0.356589     0.641440     0.752348  Biso 1.000000     O
    O   1.0     0.856033     0.140386     0.752320  Biso 1.000000     O
    O   1.0     0.856645     0.641500     0.752362  Biso 1.000000     O
    O   1.0     0.078255     0.423430     0.659430  Biso 1.000000     O
    O   1.0     0.077170     0.922302     0.659234  Biso 1.000000     O
    O   1.0     0.578257     0.423425     0.659411  Biso 1.000000     O
    O   1.0     0.577522     0.922628     0.659213  Biso 1.000000     O
    O   1.0     0.143339     0.358518     0.752363  Biso 1.000000     O
    O   1.0     0.143950     0.859631     0.752320  Biso 1.000000     O
    O   1.0     0.643393     0.358578     0.752348  Biso 1.000000     O
    O   1.0     0.643991     0.859684     0.752319  Biso 1.000000     O
    O   1.0     0.328148     0.326682     0.159284  Biso 1.000000     O
    O   1.0     0.327878     0.826969     0.159332  Biso 1.000000     O
    O   1.0     0.828165     0.326653     0.159276  Biso 1.000000     O
    O   1.0     0.827693     0.827079     0.159175  Biso 1.000000     O
    O   1.0     0.393727     0.390862     0.252305  Biso 1.000000     O
    O   1.0     0.393091     0.891581     0.252340  Biso 1.000000     O
    O   1.0     0.893725     0.390853     0.252298  Biso 1.000000     O
    O   1.0     0.891464     0.892730     0.252307  Biso 1.000000     O
    O   1.0     0.172291     0.172940     0.159175  Biso 1.000000     O
    O   1.0     0.171820     0.673370     0.159275  Biso 1.000000     O
    O   1.0     0.672109     0.173049     0.159332  Biso 1.000000     O
    O   1.0     0.671840     0.673332     0.159286  Biso 1.000000     O
    O   1.0     0.108520     0.107290     0.252308  Biso 1.000000     O
    O   1.0     0.106262     0.609169     0.252297  Biso 1.000000     O
    O   1.0     0.606888     0.108446     0.252340  Biso 1.000000     O
    O   1.0     0.606257     0.609153     0.252307  Biso 1.000000     O
   Zn   1.0    -0.000001    -0.000001     0.719790  Biso 1.000000    Zn
   Zn   1.0     0.000001     0.500018     0.719882  Biso 1.000000    Zn
   Zn   1.0     0.499989     0.000001     0.719780  Biso 1.000000    Zn
   Zn   1.0     0.499991     0.500005     0.719872  Biso 1.000000    Zn
   Zn   1.0     0.249886     0.250257     0.219810  Biso 1.000000    Zn
   Zn   1.0     0.250136     0.749685     0.219829  Biso 1.000000    Zn
   Zn   1.0     0.749850     0.250335     0.219830  Biso 1.000000    Zn
   Zn   1.0     0.750098     0.749761     0.219810  Biso 1.000000    Zn
   Zn   1.0     0.249885     0.250257     0.780196  Biso 1.000000    Zn
   Zn   1.0     0.250134     0.749684     0.780177  Biso 1.000000    Zn
   Zn   1.0     0.749849     0.250335     0.780177  Biso 1.000000    Zn
   Zn   1.0     0.750097     0.749761     0.780197  Biso 1.000000    Zn
   Zn   1.0    -0.000000    -0.000000     0.280216  Biso 1.000000    Zn
   Zn   1.0     0.000003     0.500024     0.280125  Biso 1.000000    Zn
   Zn   1.0     0.499990     0.000001     0.280227  Biso 1.000000    Zn
   Zn   1.0     0.499990     0.499996     0.280134  Biso 1.000000    Zn
