#======================================================================

# CRYSTAL DATA

#----------------------------------------------------------------------

data_VESTA_phase_1


_pd_phase_name                         MOF
_cell_length_a                         16.01900
_cell_length_b                         20.37700
_cell_length_c                         12.16100
_cell_angle_alpha                      114.72900
_cell_angle_beta                       98.09100
_cell_angle_gamma                      89.99000
_symmetry_space_group_name_H-M         "P 1"
_symmetry_Int_Tables_number            1

loop_
_symmetry_equiv_pos_as_xyz
   "x, y, z"

loop_
   _atom_site_label
   _atom_site_occupancy
   _atom_site_fract_x
   _atom_site_fract_y
   _atom_site_fract_z
   _atom_site_adp_type
   _atom_site_B_iso_or_equiv
   _atom_site_type_symbol
    H   1.0     0.487712     0.402036     0.648503  Biso 1.000000     H
    H   1.0     0.487712     0.902034     0.648501  Biso 1.000000     H
    H   1.0     0.987701     0.402035     0.648499  Biso 1.000000     H
    H   1.0     0.987701     0.902033     0.648498  Biso 1.000000     H
    H   1.0     0.445382     0.403499     0.837600  Biso 1.000000     H
    H   1.0     0.445379     0.903498     0.837597  Biso 1.000000     H
    H   1.0     0.945373     0.403498     0.837598  Biso 1.000000     H
    H   1.0     0.945371     0.903497     0.837595  Biso 1.000000     H
    H   1.0     0.351280     0.115009     0.909927  Biso 1.000000     H
    H   1.0     0.351278     0.615003     0.909925  Biso 1.000000     H
    H   1.0     0.851280     0.115012     0.909934  Biso 1.000000     H
    H   1.0     0.851277     0.615006     0.909930  Biso 1.000000     H
    H   1.0     0.399479     0.104726     0.719925  Biso 1.000000     H
    H   1.0     0.399475     0.604721     0.719923  Biso 1.000000     H
    H   1.0     0.899475     0.104728     0.719930  Biso 1.000000     H
    H   1.0     0.899471     0.604723     0.719926  Biso 1.000000     H
    H   1.0     0.261376     0.077903     0.351280  Biso 1.000000     H
    H   1.0     0.261377     0.577898     0.351278  Biso 1.000000     H
    H   1.0     0.761372     0.077904     0.351283  Biso 1.000000     H
    H   1.0     0.761375     0.577899     0.351281  Biso 1.000000     H
    H   1.0     0.303514     0.484824     0.162113  Biso 1.000000     H
    H   1.0     0.303516     0.984826     0.162112  Biso 1.000000     H
    H   1.0     0.803510     0.484825     0.162114  Biso 1.000000     H
    H   1.0     0.803512     0.984828     0.162114  Biso 1.000000     H
    H   1.0     0.400216     0.160029     0.091564  Biso 1.000000     H
    H   1.0     0.400217     0.660024     0.091563  Biso 1.000000     H
    H   1.0     0.900218     0.160031     0.091570  Biso 1.000000     H
    H   1.0     0.900217     0.660026     0.091567  Biso 1.000000     H
    H   1.0     0.351906     0.244754     0.281399  Biso 1.000000     H
    H   1.0     0.351905     0.744749     0.281395  Biso 1.000000     H
    H   1.0     0.851908     0.244756     0.281405  Biso 1.000000     H
    H   1.0     0.851906     0.744751     0.281401  Biso 1.000000     H
    H   1.0     0.012300     0.097935     0.351543  Biso 1.000000     H
    H   1.0     0.012299     0.597932     0.351541  Biso 1.000000     H
    H   1.0     0.512290     0.097934     0.351540  Biso 1.000000     H
    H   1.0     0.512289     0.597932     0.351539  Biso 1.000000     H
    H   1.0     0.054629     0.096470     0.162444  Biso 1.000000     H
    H   1.0     0.054629     0.596469     0.162444  Biso 1.000000     H
    H   1.0     0.554621     0.096469     0.162442  Biso 1.000000     H
    H   1.0     0.554619     0.596468     0.162441  Biso 1.000000     H
    H   1.0     0.148720     0.384960     0.090111  Biso 1.000000     H
    H   1.0     0.148717     0.884954     0.090106  Biso 1.000000     H
    H   1.0     0.648721     0.384963     0.090117  Biso 1.000000     H
    H   1.0     0.648717     0.884957     0.090111  Biso 1.000000     H
    H   1.0     0.100525     0.395243     0.280114  Biso 1.000000     H
    H   1.0     0.100524     0.895240     0.280112  Biso 1.000000     H
    H   1.0     0.600523     0.395246     0.280120  Biso 1.000000     H
    H   1.0     0.600520     0.895242     0.280115  Biso 1.000000     H
    H   1.0     0.238623     0.422071     0.648760  Biso 1.000000     H
    H   1.0     0.238628     0.922066     0.648759  Biso 1.000000     H
    H   1.0     0.738622     0.422073     0.648764  Biso 1.000000     H
    H   1.0     0.738626     0.922067     0.648762  Biso 1.000000     H
    H   1.0     0.196486     0.015141     0.837928  Biso 1.000000     H
    H   1.0     0.196491     0.515143     0.837931  Biso 1.000000     H
    H   1.0     0.696484     0.015142     0.837931  Biso 1.000000     H
    H   1.0     0.696486     0.515145     0.837932  Biso 1.000000     H
    H   1.0     0.099784     0.339939     0.908471  Biso 1.000000     H
    H   1.0     0.099783     0.839936     0.908466  Biso 1.000000     H
    H   1.0     0.599785     0.339941     0.908476  Biso 1.000000     H
    H   1.0     0.599783     0.839937     0.908471  Biso 1.000000     H
    H   1.0     0.148092     0.255217     0.718632  Biso 1.000000     H
    H   1.0     0.148093     0.755212     0.718631  Biso 1.000000     H
    H   1.0     0.648095     0.255218     0.718641  Biso 1.000000     H
    H   1.0     0.648094     0.755213     0.718636  Biso 1.000000     H
    H   1.0     0.374730     0.459710     0.000071  Biso 1.000000     H
    H   1.0     0.374732     0.959711     0.000070  Biso 1.000000     H
    H   1.0     0.874726     0.459711     0.000073  Biso 1.000000     H
    H   1.0     0.874728     0.959712     0.000073  Biso 1.000000     H
    H   1.0     0.125275     0.040253    -0.000025  Biso 1.000000     H
    H   1.0     0.125273     0.540255     0.999970  Biso 1.000000     H
    H   1.0     0.625271     0.040255    -0.000023  Biso 1.000000     H
    H   1.0     0.625273     0.540256    -0.000021  Biso 1.000000     H
    C   1.0     0.070533     0.326538     0.419524  Biso 1.000000     C
    C   1.0     0.070534     0.826535     0.419524  Biso 1.000000     C
    C   1.0     0.570528     0.326539     0.419529  Biso 1.000000     C
    C   1.0     0.570530     0.826537     0.419529  Biso 1.000000     C
    C   1.0     0.398328     0.011367     0.895526  Biso 1.000000     C
    C   1.0     0.398337     0.511366     0.895530  Biso 1.000000     C
    C   1.0     0.898323     0.011368     0.895528  Biso 1.000000     C
    C   1.0     0.898329     0.511365     0.895529  Biso 1.000000     C
    C   1.0     0.458923     0.448847     0.710629  Biso 1.000000     C
    C   1.0     0.458918     0.948844     0.710623  Biso 1.000000     C
    C   1.0     0.958910     0.448845     0.710624  Biso 1.000000     C
    C   1.0     0.958909     0.948844     0.710622  Biso 1.000000     C
    C   1.0     0.435100     0.450176     0.816541  Biso 1.000000     C
    C   1.0     0.435107     0.950178     0.816545  Biso 1.000000     C
    C   1.0     0.935097     0.450178     0.816543  Biso 1.000000     C
    C   1.0     0.935100     0.950179     0.816545  Biso 1.000000     C
    C   1.0     0.384186     0.067885     0.858804  Biso 1.000000     C
    C   1.0     0.384180     0.567878     0.858798  Biso 1.000000     C
    C   1.0     0.884184     0.067888     0.858809  Biso 1.000000     C
    C   1.0     0.884180     0.567881     0.858804  Biso 1.000000     C
    C   1.0     0.410161     0.061879     0.750777  Biso 1.000000     C
    C   1.0     0.410166     0.561877     0.750781  Biso 1.000000     C
    C   1.0     0.910156     0.061880     0.750780  Biso 1.000000     C
    C   1.0     0.910157     0.561877     0.750780  Biso 1.000000     C
    C   1.0     0.179402     0.116562     0.580151  Biso 1.000000     C
    C   1.0     0.179404     0.616560     0.580151  Biso 1.000000     C
    C   1.0     0.679396     0.116563     0.580152  Biso 1.000000     C
    C   1.0     0.679398     0.616560     0.580152  Biso 1.000000     C
    C   1.0     0.351841     0.063699     0.105034  Biso 1.000000     C
    C   1.0     0.351852     0.563694     0.105040  Biso 1.000000     C
    C   1.0     0.851840     0.063700     0.105039  Biso 1.000000     C
    C   1.0     0.851845     0.563695     0.105039  Biso 1.000000     C
    C   1.0     0.290658     0.093629     0.289480  Biso 1.000000     C
    C   1.0     0.290668     0.593624     0.289486  Biso 1.000000     C
    C   1.0     0.790657     0.093630     0.289485  Biso 1.000000     C
    C   1.0     0.790662     0.593625     0.289485  Biso 1.000000     C
    C   1.0     0.314365     0.042013     0.183529  Biso 1.000000     C
    C   1.0     0.314359     0.542008     0.183522  Biso 1.000000     C
    C   1.0     0.814361     0.042014     0.183532  Biso 1.000000     C
    C   1.0     0.814362     0.542009     0.183529  Biso 1.000000     C
    C   1.0     0.366704     0.138524     0.142231  Biso 1.000000     C
    C   1.0     0.366697     0.638519     0.142222  Biso 1.000000     C
    C   1.0     0.866703     0.138525     0.142235  Biso 1.000000     C
    C   1.0     0.866701     0.638521     0.142230  Biso 1.000000     C
    C   1.0     0.340718     0.186525     0.250199  Biso 1.000000     C
    C   1.0     0.340726     0.686520     0.250203  Biso 1.000000     C
    C   1.0     0.840720     0.186526     0.250206  Biso 1.000000     C
    C   1.0     0.840722     0.686521     0.250204  Biso 1.000000     C
    C   1.0     0.429471     0.173433     0.580515  Biso 1.000000     C
    C   1.0     0.429473     0.673431     0.580517  Biso 1.000000     C
    C   1.0     0.929467     0.173435     0.580519  Biso 1.000000     C
    C   1.0     0.929468     0.673432     0.580520  Biso 1.000000     C
    C   1.0     0.101679     0.488604     0.104518  Biso 1.000000     C
    C   1.0     0.101673     0.988597     0.104510  Biso 1.000000     C
    C   1.0     0.601668     0.488603     0.104515  Biso 1.000000     C
    C   1.0     0.601668     0.988598     0.104511  Biso 1.000000     C
    C   1.0     0.041088     0.051123     0.289417  Biso 1.000000     C
    C   1.0     0.041098     0.551125     0.289423  Biso 1.000000     C
    C   1.0     0.541079     0.051123     0.289415  Biso 1.000000     C
    C   1.0     0.541083     0.551123     0.289417  Biso 1.000000     C
    C   1.0     0.064903     0.049790     0.183499  Biso 1.000000     C
    C   1.0     0.064896     0.549786     0.183492  Biso 1.000000     C
    C   1.0     0.564896     0.049790     0.183498  Biso 1.000000     C
    C   1.0     0.564895     0.549789     0.183496  Biso 1.000000     C
    C   1.0     0.115810     0.432081     0.141230  Biso 1.000000     C
    C   1.0     0.115818     0.932081     0.141235  Biso 1.000000     C
    C   1.0     0.615814     0.432086     0.141240  Biso 1.000000     C
    C   1.0     0.615815     0.932082     0.141238  Biso 1.000000     C
    C   1.0     0.089848     0.438093     0.249267  Biso 1.000000     C
    C   1.0     0.089840     0.938086     0.249258  Biso 1.000000     C
    C   1.0     0.589838     0.438092     0.249266  Biso 1.000000     C
    C   1.0     0.589835     0.938087     0.249260  Biso 1.000000     C
    C   1.0     0.320604     0.383410     0.419888  Biso 1.000000     C
    C   1.0     0.320605     0.883406     0.419887  Biso 1.000000     C
    C   1.0     0.820596     0.383410     0.419888  Biso 1.000000     C
    C   1.0     0.820599     0.883408     0.419888  Biso 1.000000     C
    C   1.0     0.148165     0.436271     0.895009  Biso 1.000000     C
    C   1.0     0.148155     0.936267     0.894997  Biso 1.000000     C
    C   1.0     0.648154     0.436273     0.895006  Biso 1.000000     C
    C   1.0     0.648155     0.936268     0.895002  Biso 1.000000     C
    C   1.0     0.209347     0.406345     0.710564  Biso 1.000000     C
    C   1.0     0.209338     0.906340     0.710552  Biso 1.000000     C
    C   1.0     0.709337     0.406346     0.710561  Biso 1.000000     C
    C   1.0     0.709338     0.906341     0.710557  Biso 1.000000     C
    C   1.0     0.185629     0.457959     0.816506  Biso 1.000000     C
    C   1.0     0.185644     0.957954     0.816513  Biso 1.000000     C
    C   1.0     0.685635     0.457960     0.816516  Biso 1.000000     C
    C   1.0     0.685639     0.957956     0.816515  Biso 1.000000     C
    C   1.0     0.133290     0.361446     0.857800  Biso 1.000000     C
    C   1.0     0.133302     0.861442     0.857807  Biso 1.000000     C
    C   1.0     0.633298     0.361447     0.857812  Biso 1.000000     C
    C   1.0     0.633299     0.861443     0.857809  Biso 1.000000     C
    C   1.0     0.159287     0.313446     0.749839  Biso 1.000000     C
    C   1.0     0.159276     0.813442     0.749828  Biso 1.000000     C
    C   1.0     0.659280     0.313448     0.749839  Biso 1.000000     C
    C   1.0     0.659278     0.813443     0.749833  Biso 1.000000     C
    N   1.0     0.050005     0.386542     0.469390  Biso 1.000000     N
    N   1.0     0.050008     0.886540     0.469389  Biso 1.000000     N
    N   1.0     0.550000     0.386544     0.469394  Biso 1.000000     N
    N   1.0     0.550003     0.886542     0.469394  Biso 1.000000     N
    N   1.0     0.448342     0.004394     0.677927  Biso 1.000000     N
    N   1.0     0.448341     0.504390     0.677924  Biso 1.000000     N
    N   1.0     0.948335     0.004394     0.677927  Biso 1.000000     N
    N   1.0     0.948335     0.504391     0.677925  Biso 1.000000     N
    N   1.0     0.199581     0.152067     0.530785  Biso 1.000000     N
    N   1.0     0.199583     0.652063     0.530782  Biso 1.000000     N
    N   1.0     0.699578     0.152068     0.530787  Biso 1.000000     N
    N   1.0     0.699580     0.652063     0.530783  Biso 1.000000     N
    N   1.0     0.301856     0.165493     0.322551  Biso 1.000000     N
    N   1.0     0.301851     0.665488     0.322543  Biso 1.000000     N
    N   1.0     0.801854     0.165495     0.322554  Biso 1.000000     N
    N   1.0     0.801853     0.665490     0.322550  Biso 1.000000     N
    N   1.0     0.450001     0.113428     0.530653  Biso 1.000000     N
    N   1.0     0.450004     0.613427     0.530656  Biso 1.000000     N
    N   1.0     0.949995     0.113430     0.530658  Biso 1.000000     N
    N   1.0     0.949998     0.613428     0.530659  Biso 1.000000     N
    N   1.0     0.051659     0.495574     0.322112  Biso 1.000000     N
    N   1.0     0.051667     0.995575     0.322116  Biso 1.000000     N
    N   1.0     0.551656     0.495577     0.322116  Biso 1.000000     N
    N   1.0     0.551660     0.995575     0.322116  Biso 1.000000     N
    N   1.0     0.300419     0.347908     0.469257  Biso 1.000000     N
    N   1.0     0.300421     0.847903     0.469252  Biso 1.000000     N
    N   1.0     0.800415     0.347908     0.469258  Biso 1.000000     N
    N   1.0     0.800418     0.847903     0.469253  Biso 1.000000     N
    N   1.0     0.198140     0.334479     0.677482  Biso 1.000000     N
    N   1.0     0.198149     0.834475     0.677487  Biso 1.000000     N
    N   1.0     0.698145     0.334481     0.677492  Biso 1.000000     N
    N   1.0     0.698147     0.834476     0.677489  Biso 1.000000     N
    N   1.0     0.375009     0.009780     0.000243  Biso 1.000000     N
    N   1.0     0.375006     0.509776     0.000000  Biso 1.000000     N
    N   1.0     0.875006     0.009782     0.000246  Biso 1.000000     N
    N   1.0     0.875009     0.509777     0.000244  Biso 1.000000     N
    N   1.0     0.124993     0.490188    -0.000197  Biso 1.000000     N
    N   1.0     0.124999     0.990185    -0.000196  Biso 1.000000     N
    N   1.0     0.624992     0.490190    -0.000192  Biso 1.000000     N
    N   1.0     0.624995     0.990186    -0.000194  Biso 1.000000     N
    S   1.0     0.098035     0.243350     0.350650  Biso 1.000000     S
    S   1.0     0.098034     0.743347     0.350652  Biso 1.000000     S
    S   1.0     0.598031     0.243352     0.350656  Biso 1.000000     S
    S   1.0     0.598031     0.743349     0.350656  Biso 1.000000     S
    S   1.0     0.152341     0.067162     0.648219  Biso 1.000000     S
    S   1.0     0.152342     0.567162     0.648223  Biso 1.000000     S
    S   1.0     0.652331     0.067164     0.648220  Biso 1.000000     S
    S   1.0     0.652333     0.567164     0.648224  Biso 1.000000     S
    S   1.0     0.401968     0.256620     0.649383  Biso 1.000000     S
    S   1.0     0.401968     0.756618     0.649385  Biso 1.000000     S
    S   1.0     0.901965     0.256623     0.649387  Biso 1.000000     S
    S   1.0     0.901965     0.756620     0.649389  Biso 1.000000     S
    S   1.0     0.347672     0.432805     0.351817  Biso 1.000000     S
    S   1.0     0.347673     0.932804     0.351819  Biso 1.000000     S
    S   1.0     0.847661     0.432806     0.351816  Biso 1.000000     S
    S   1.0     0.847662     0.932807     0.351820  Biso 1.000000     S
   Cd   1.0     0.000007    -0.000014     0.500022  Biso 1.000000    Cd
   Cd   1.0     0.000010     0.499985     0.500022  Biso 1.000000    Cd
   Cd   1.0     0.499997    -0.000014     0.500021  Biso 1.000000    Cd
   Cd   1.0     0.500001     0.499985     0.500023  Biso 1.000000    Cd
   Cd   1.0     0.250001     0.249987     0.500019  Biso 1.000000    Cd
   Cd   1.0     0.250002     0.749982     0.500016  Biso 1.000000    Cd
   Cd   1.0     0.749998     0.249988     0.500022  Biso 1.000000    Cd
   Cd   1.0     0.749999     0.749983     0.500019  Biso 1.000000    Cd
