#======================================================================

# CRYSTAL DATA

#----------------------------------------------------------------------

data_VESTA_phase_1


_pd_phase_name                         MOF
_cell_length_a                         13.27300
_cell_length_b                         14.19700
_cell_length_c                         17.28500
_cell_angle_alpha                      66.12200
_cell_angle_beta                       87.26200
_cell_angle_gamma                      89.82900
_symmetry_space_group_name_H-M         "P 1"
_symmetry_Int_Tables_number            1

loop_
_symmetry_equiv_pos_as_xyz
   "x, y, z"

loop_
   _atom_site_label
   _atom_site_occupancy
   _atom_site_fract_x
   _atom_site_fract_y
   _atom_site_fract_z
   _atom_site_adp_type
   _atom_site_B_iso_or_equiv
   _atom_site_type_symbol
    H   1.0     0.080376     0.722113     0.258103  Biso 1.000000     H
    H   1.0     0.000000     0.812428    -0.001934  Biso 1.000000     H
    H   1.0     0.234174     0.980720     0.060488  Biso 1.000000     H
    H   1.0     0.165834     0.100414     0.936239  Biso 1.000000     H
    H   1.0     0.268298     0.039108     0.903875  Biso 1.000000     H
    H   1.0     0.076407     0.110373     0.801854  Biso 1.000000     H
    H   1.0     0.152050     0.215154     0.295326  Biso 1.000000     H
    H   1.0     0.104887     0.295741     0.508747  Biso 1.000000     H
    H   1.0     0.300202     0.044952     0.528232  Biso 1.000000     H
    H   1.0     0.204168     0.283802     0.625551  Biso 1.000000     H
    H   1.0     0.104323     0.189517     0.653404  Biso 1.000000     H
    H   1.0     0.303113     0.145993     0.748603  Biso 1.000000     H
    H   1.0     0.568642     0.700506     0.296570  Biso 1.000000     H
    H   1.0     0.728408     0.470216     0.494373  Biso 1.000000     H
    H   1.0     0.492124     0.640269     0.558093  Biso 1.000000     H
    H   1.0     0.702785     0.372451     0.631793  Biso 1.000000     H
    H   1.0     0.778217     0.480934     0.622977  Biso 1.000000     H
    H   1.0     0.650502     0.338314     0.783116  Biso 1.000000     H
    H   1.0     0.824401     0.496407     0.746764  Biso 1.000000     H
    H   1.0     0.748360     0.473675     0.890583  Biso 1.000000     H
    H   1.0     0.854327     0.395448     0.894717  Biso 1.000000     H
    H   1.0     0.799211     0.416610     0.014933  Biso 1.000000     H
    H   1.0     0.667997     0.208928     0.256551  Biso 1.000000     H
    H   1.0     0.603559     0.166764     0.030402  Biso 1.000000     H
    H   1.0     0.921528     0.277184     0.742619  Biso 1.000000     H
    H   1.0     0.000460     0.184981     0.000000  Biso 1.000000     H
    H   1.0     0.767980     0.018695     0.940581  Biso 1.000000     H
    H   1.0     0.836378     0.897701     0.064880  Biso 1.000000     H
    H   1.0     0.734877     0.960939     0.096354  Biso 1.000000     H
    H   1.0     0.925539     0.887084     0.199614  Biso 1.000000     H
    H   1.0     0.845832     0.783810     0.706172  Biso 1.000000     H
    H   1.0     0.893768     0.703493     0.492686  Biso 1.000000     H
    H   1.0     0.700183     0.955790     0.472339  Biso 1.000000     H
    H   1.0     0.795728     0.716519     0.375276  Biso 1.000000     H
    H   1.0     0.896041     0.810170     0.348161  Biso 1.000000     H
    H   1.0     0.698309     0.855745     0.251561  Biso 1.000000     H
    H   1.0     0.432458     0.300916     0.703827  Biso 1.000000     H
    H   1.0     0.272198     0.529874     0.505546  Biso 1.000000     H
    H   1.0     0.507697     0.358290     0.442697  Biso 1.000000     H
    H   1.0     0.297674     0.626481     0.368146  Biso 1.000000     H
    H   1.0     0.221808     0.518078     0.377387  Biso 1.000000     H
    H   1.0     0.349357     0.660200     0.216999  Biso 1.000000     H
    H   1.0     0.176129     0.501297     0.253723  Biso 1.000000     H
    H   1.0     0.252429     0.524413     0.109614  Biso 1.000000     H
    H   1.0     0.146132     0.602157     0.105695  Biso 1.000000     H
    H   1.0     0.200009     0.582907     0.985050  Biso 1.000000     H
    H   1.0     0.331247     0.791404     0.743715  Biso 1.000000     H
    H   1.0     0.396829     0.831475     0.970541  Biso 1.000000     H
    C   1.0     0.220487     0.873876     0.228242  Biso 1.000000     C
    C   1.0     0.954584     0.677041     0.156491  Biso 1.000000     C
    C   1.0     0.161436     0.854407     0.164825  Biso 1.000000     C
    C   1.0     0.091760     0.772501     0.191394  Biso 1.000000     C
    C   1.0     0.035160     0.757779     0.130782  Biso 1.000000     C
    C   1.0     0.049199     0.822904     0.045165  Biso 1.000000     C
    C   1.0     0.121363     0.902929     0.018505  Biso 1.000000     C
    C   1.0     0.177665     0.919247     0.078496  Biso 1.000000     C
    C   1.0     0.186857     0.054639     0.899510  Biso 1.000000     C
    C   1.0     0.157709     0.107957     0.809968  Biso 1.000000     C
    C   1.0     0.269082     0.044668     0.376136  Biso 1.000000     C
    C   1.0     0.043020     0.336460     0.353440  Biso 1.000000     C
    C   1.0     0.232385     0.123248     0.407373  Biso 1.000000     C
    C   1.0     0.169537     0.203072     0.359503  Biso 1.000000     C
    C   1.0     0.122524     0.262626     0.398047  Biso 1.000000     C
    C   1.0     0.143654     0.248379     0.480977  Biso 1.000000     C
    C   1.0     0.211688     0.172790     0.525916  Biso 1.000000     C
    C   1.0     0.253230     0.108063     0.489915  Biso 1.000000     C
    C   1.0     0.186449     0.200451     0.654244  Biso 1.000000     C
    C   1.0     0.221438     0.149565     0.742350  Biso 1.000000     C
    C   1.0     0.443340     0.757960     0.397994  Biso 1.000000     C
    C   1.0     0.715431     0.557554     0.327008  Biso 1.000000     C
    C   1.0     0.523375     0.679458     0.424583  Biso 1.000000     C
    C   1.0     0.580978     0.658677     0.363545  Biso 1.000000     C
    C   1.0     0.653349     0.582019     0.390246  Biso 1.000000     C
    C   1.0     0.670828     0.528666     0.476700  Biso 1.000000     C
    C   1.0     0.613070     0.550373     0.537150  Biso 1.000000     C
    C   1.0     0.537938     0.624844     0.510738  Biso 1.000000     C
    C   1.0     0.708279     0.436370     0.652095  Biso 1.000000     C
    C   1.0     0.706106     0.398084     0.746258  Biso 1.000000     C
    C   1.0     0.769547     0.436087     0.784513  Biso 1.000000     C
    C   1.0     0.775004     0.407818     0.876917  Biso 1.000000     C
    C   1.0     0.707424     0.291974     0.011978  Biso 1.000000     C
    C   1.0     0.753948     0.347909     0.051089  Biso 1.000000     C
    C   1.0     0.740161     0.317937     0.139079  Biso 1.000000     C
    C   1.0     0.680678     0.231689     0.188670  Biso 1.000000     C
    C   1.0     0.630494     0.178396     0.148326  Biso 1.000000     C
    C   1.0     0.644483     0.207592     0.060902  Biso 1.000000     C
    C   1.0     0.780312     0.389688     0.174092  Biso 1.000000     C
    C   1.0     0.553034     0.097137     0.197203  Biso 1.000000     C
    C   1.0     0.780146     0.126049     0.772946  Biso 1.000000     C
    C   1.0     0.049393     0.321013     0.843934  Biso 1.000000     C
    C   1.0     0.840402     0.145033     0.836062  Biso 1.000000     C
    C   1.0     0.910646     0.226534     0.809313  Biso 1.000000     C
    C   1.0     0.968379     0.240556     0.869684  Biso 1.000000     C
    C   1.0     0.954853     0.175065     0.955272  Biso 1.000000     C
    C   1.0     0.882247     0.095413     0.982138  Biso 1.000000     C
    C   1.0     0.824837     0.079868     0.922381  Biso 1.000000     C
    C   1.0     0.816050     0.944127     0.101216  Biso 1.000000     C
    C   1.0     0.844315     0.890868     0.191017  Biso 1.000000     C
    C   1.0     0.730749     0.955461     0.624781  Biso 1.000000     C
    C   1.0     0.954653     0.662106     0.648535  Biso 1.000000     C
    C   1.0     0.766768     0.876615     0.593639  Biso 1.000000     C
    C   1.0     0.828753     0.796145     0.641857  Biso 1.000000     C
    C   1.0     0.875613     0.736344     0.603486  Biso 1.000000     C
    C   1.0     0.855075     0.750995     0.520354  Biso 1.000000     C
    C   1.0     0.787788     0.827220     0.475044  Biso 1.000000     C
    C   1.0     0.746480     0.892186     0.510897  Biso 1.000000     C
    C   1.0     0.813924     0.799768     0.346731  Biso 1.000000     C
    C   1.0     0.779887     0.850856     0.258325  Biso 1.000000     C
    C   1.0     0.556797     0.241739     0.602949  Biso 1.000000     C
    C   1.0     0.286244     0.444127     0.672929  Biso 1.000000     C
    C   1.0     0.476910     0.320340     0.576070  Biso 1.000000     C
    C   1.0     0.419842     0.342066     0.636835  Biso 1.000000     C
    C   1.0     0.347650     0.418865     0.609839  Biso 1.000000     C
    C   1.0     0.329714     0.471361     0.523410  Biso 1.000000     C
    C   1.0     0.387103     0.448828     0.463225  Biso 1.000000     C
    C   1.0     0.462137     0.374285     0.489884  Biso 1.000000     C
    C   1.0     0.291860     0.562340     0.348132  Biso 1.000000     C
    C   1.0     0.293992     0.600244     0.254000  Biso 1.000000     C
    C   1.0     0.230831     0.561748     0.215899  Biso 1.000000     C
    C   1.0     0.225471     0.590034     0.123479  Biso 1.000000     C
    C   1.0     0.292520     0.706763     0.988501  Biso 1.000000     C
    C   1.0     0.245491     0.651504     0.949083  Biso 1.000000     C
    C   1.0     0.258994     0.682024     0.861002  Biso 1.000000     C
    C   1.0     0.318769     0.768205     0.811665  Biso 1.000000     C
    C   1.0     0.369413     0.820891     0.852301  Biso 1.000000     C
    C   1.0     0.355635     0.791109     0.939809  Biso 1.000000     C
    C   1.0     0.218195     0.610807     0.825711  Biso 1.000000     C
    C   1.0     0.446964     0.902250     0.803599  Biso 1.000000     C
    O   1.0     0.293414     0.937738     0.201863  Biso 1.000000     O
    O   1.0     0.191781     0.822942     0.307259  Biso 1.000000     O
    O   1.0     0.959837     0.595894     0.224198  Biso 1.000000     O
    O   1.0     0.880341     0.696371     0.106878  Biso 1.000000     O
    O   1.0     0.129051     0.959049     0.933406  Biso 1.000000     O
    O   1.0     0.253090     0.950580     0.430472  Biso 1.000000     O
    O   1.0     0.310506     0.070243     0.302957  Biso 1.000000     O
    O   1.0     0.978581     0.365215     0.397685  Biso 1.000000     O
    O   1.0     0.036013     0.369192     0.273606  Biso 1.000000     O
    O   1.0     0.239798     0.151845     0.605960  Biso 1.000000     O
    O   1.0     0.453529     0.834767     0.326941  Biso 1.000000     O
    O   1.0     0.364791     0.741142     0.449139  Biso 1.000000     O
    O   1.0     0.786512     0.494416     0.352837  Biso 1.000000     O
    O   1.0     0.692810     0.604552     0.248599  Biso 1.000000     O
    O   1.0     0.622598     0.503286     0.622341  Biso 1.000000     O
    O   1.0     0.715531     0.317364     0.926483  Biso 1.000000     O
    O   1.0     0.781817     0.485772     0.120839  Biso 1.000000     O
    O   1.0     0.808299     0.358945     0.249224  Biso 1.000000     O
    O   1.0     0.497149     0.061202     0.155530  Biso 1.000000     O
    O   1.0     0.538099     0.067632     0.276529  Biso 1.000000     O
    O   1.0     0.706795     0.062688     0.799643  Biso 1.000000     O
    O   1.0     0.808464     0.176824     0.693812  Biso 1.000000     O
    O   1.0     0.043877     0.402776     0.776742  Biso 1.000000     O
    O   1.0     0.124285     0.300947     0.892979  Biso 1.000000     O
    O   1.0     0.875304     0.038811     0.067185  Biso 1.000000     O
    O   1.0     0.746767     0.049447     0.570246  Biso 1.000000     O
    O   1.0     0.689974     0.930181     0.698183  Biso 1.000000     O
    O   1.0     0.019405     0.633597     0.604242  Biso 1.000000     O
    O   1.0     0.961072     0.629199     0.728326  Biso 1.000000     O
    O   1.0     0.760352     0.848572     0.394746  Biso 1.000000     O
    O   1.0     0.546403     0.164981     0.674012  Biso 1.000000     O
    O   1.0     0.635466     0.258532     0.551971  Biso 1.000000     O
    O   1.0     0.213816     0.505570     0.647508  Biso 1.000000     O
    O   1.0     0.311098     0.399239     0.750965  Biso 1.000000     O
    O   1.0     0.377308     0.495148     0.378042  Biso 1.000000     O
    O   1.0     0.284673     0.680727     0.074092  Biso 1.000000     O
    O   1.0     0.214924     0.514681     0.879014  Biso 1.000000     O
    O   1.0     0.191224     0.641852     0.750257  Biso 1.000000     O
    O   1.0     0.502715     0.938105     0.845466  Biso 1.000000     O
    O   1.0     0.461994     0.931939     0.724299  Biso 1.000000     O
   Zn   1.0     0.266590     0.843615     0.391456  Biso 1.000000    Zn
   Zn   1.0     0.897827     0.443784     0.294295  Biso 1.000000    Zn
   Zn   1.0     0.781033     0.588632     0.164523  Biso 1.000000    Zn
   Zn   1.0     0.404571     0.984350     0.258044  Biso 1.000000    Zn
   Zn   1.0     0.733598     0.156127     0.609686  Biso 1.000000    Zn
   Zn   1.0     0.102075     0.556133     0.706089  Biso 1.000000    Zn
   Zn   1.0     0.221784     0.411284     0.835889  Biso 1.000000    Zn
   Zn   1.0     0.595567     0.015585     0.743339  Biso 1.000000    Zn
