#======================================================================

# CRYSTAL DATA

#----------------------------------------------------------------------

data_VESTA_phase_1


_pd_phase_name                         MOF
_cell_length_a                         13.01900
_cell_length_b                         12.95100
_cell_length_c                         21.11700
_cell_angle_alpha                      85.76500
_cell_angle_beta                       85.79700
_cell_angle_gamma                      69.84300
_symmetry_space_group_name_H-M         "P 1"
_symmetry_Int_Tables_number            1

loop_
_symmetry_equiv_pos_as_xyz
   "x, y, z"

loop_
   _atom_site_label
   _atom_site_occupancy
   _atom_site_fract_x
   _atom_site_fract_y
   _atom_site_fract_z
   _atom_site_adp_type
   _atom_site_B_iso_or_equiv
   _atom_site_type_symbol
    H   1.0     0.867841     0.142888     0.097285  Biso 1.000000     H
    H   1.0     0.739020     0.465642     0.225251  Biso 1.000000     H
    H   1.0     0.905324     0.298847     0.254739  Biso 1.000000     H
    H   1.0     0.228626     0.218768     0.314345  Biso 1.000000     H
    H   1.0     0.821216     0.104210     0.913843  Biso 1.000000     H
    H   1.0     0.067610     0.041177     0.443575  Biso 1.000000     H
    H   1.0     0.246595     0.226720     0.516534  Biso 1.000000     H
    H   1.0     0.684708     0.113467     0.740333  Biso 1.000000     H
    H   1.0     0.525081     0.282998     0.771724  Biso 1.000000     H
    H   1.0     0.856689     0.132355     0.402648  Biso 1.000000     H
    H   1.0     0.535346     0.260053     0.274768  Biso 1.000000     H
    H   1.0     0.702263     0.094265     0.244925  Biso 1.000000     H
    H   1.0     0.782404     0.770172     0.185596  Biso 1.000000     H
    H   1.0     0.895763     0.179130     0.585951  Biso 1.000000     H
    H   1.0     0.959693     0.931376     0.056401  Biso 1.000000     H
    H   1.0     0.773217     0.753430     0.983381  Biso 1.000000     H
    H   1.0     0.886445     0.316480     0.759380  Biso 1.000000     H
    H   1.0     0.716328     0.475637     0.728430  Biso 1.000000     H
    H   1.0     0.132182     0.857086     0.902703  Biso 1.000000     H
    H   1.0     0.260999     0.534331     0.774737  Biso 1.000000     H
    H   1.0     0.094693     0.701125     0.745251  Biso 1.000000     H
    H   1.0     0.771404     0.781215     0.685641  Biso 1.000000     H
    H   1.0     0.178814     0.895773     0.086141  Biso 1.000000     H
    H   1.0     0.932426     0.958800     0.556412  Biso 1.000000     H
    H   1.0     0.753442     0.773258     0.483452  Biso 1.000000     H
    H   1.0     0.315325     0.886516     0.259650  Biso 1.000000     H
    H   1.0     0.474949     0.716982     0.228260  Biso 1.000000     H
    H   1.0     0.143351     0.867610     0.597337  Biso 1.000000     H
    H   1.0     0.464685     0.739904     0.725224  Biso 1.000000     H
    H   1.0     0.297768     0.905692     0.755066  Biso 1.000000     H
    H   1.0     0.217644     0.229793     0.814389  Biso 1.000000     H
    H   1.0     0.104281     0.820841     0.414034  Biso 1.000000     H
    H   1.0     0.040344     0.068601     0.943585  Biso 1.000000     H
    H   1.0     0.226811     0.246555     0.016605  Biso 1.000000     H
    H   1.0     0.113599     0.683495     0.240604  Biso 1.000000     H
    H   1.0     0.283718     0.524339     0.271552  Biso 1.000000     H
    C   1.0     0.837572     0.213333     0.127248  Biso 1.000000     C
    C   1.0     0.766489     0.391901     0.197918  Biso 1.000000     C
    C   1.0     0.857530     0.300823     0.214093  Biso 1.000000     C
    C   1.0     0.747755     0.305917     0.110246  Biso 1.000000     C
    C   1.0     0.695987     0.311308     0.051035  Biso 1.000000     C
    C   1.0     0.208592     0.193571     0.362646  Biso 1.000000     C
    C   1.0     0.105536     0.087697     0.316405  Biso 1.000000     C
    C   1.0     0.144592     0.125365     0.372829  Biso 1.000000     C
    C   1.0     0.755568     0.144046     0.881544  Biso 1.000000     C
    C   1.0     0.668176     0.238515     0.898517  Biso 1.000000     C
    C   1.0     0.663207     0.283686     0.959934  Biso 1.000000     C
    C   1.0     0.317742     0.299453     0.404899  Biso 1.000000     C
    C   1.0     0.153080     0.132099     0.486896  Biso 1.000000     C
    C   1.0     0.117549     0.093764     0.435096  Biso 1.000000     C
    C   1.0     0.218409     0.198254     0.476175  Biso 1.000000     C
    C   1.0     0.247187     0.228717     0.414233  Biso 1.000000     C
    C   1.0     0.679622     0.149823     0.785906  Biso 1.000000     C
    C   1.0     0.592674     0.244020     0.802756  Biso 1.000000     C
    C   1.0     0.120357     0.105634     0.554132  Biso 1.000000     C
    C   1.0     0.786528     0.162352     0.372704  Biso 1.000000     C
    C   1.0     0.608711     0.232816     0.302120  Biso 1.000000     C
    C   1.0     0.699917     0.142054     0.285737  Biso 1.000000     C
    C   1.0     0.693827     0.251811     0.389946  Biso 1.000000     C
    C   1.0     0.688085     0.303488     0.449307  Biso 1.000000     C
    C   1.0     0.807374     0.790391     0.137295  Biso 1.000000     C
    C   1.0     0.913882     0.892673     0.183618  Biso 1.000000     C
    C   1.0     0.875817     0.854119     0.127136  Biso 1.000000     C
    C   1.0     0.855735     0.244829     0.618337  Biso 1.000000     C
    C   1.0     0.760900     0.331865     0.601655  Biso 1.000000     C
    C   1.0     0.715572     0.336436     0.540388  Biso 1.000000     C
    C   1.0     0.700523     0.682220     0.095059  Biso 1.000000     C
    C   1.0     0.868334     0.846411     0.013059  Biso 1.000000     C
    C   1.0     0.907053     0.881512     0.064870  Biso 1.000000     C
    C   1.0     0.801977     0.781291     0.023762  Biso 1.000000     C
    C   1.0     0.771662     0.752360     0.085702  Biso 1.000000     C
    C   1.0     0.849945     0.321257     0.713937  Biso 1.000000     C
    C   1.0     0.755433     0.407897     0.697340  Biso 1.000000     C
    C   1.0     0.894739     0.879323     0.945816  Biso 1.000000     C
    C   1.0     0.162450     0.786641     0.872740  Biso 1.000000     C
    C   1.0     0.233531     0.608072     0.802071  Biso 1.000000     C
    C   1.0     0.142490     0.699149     0.785896  Biso 1.000000     C
    C   1.0     0.252268     0.694057     0.889741  Biso 1.000000     C
    C   1.0     0.304038     0.688668     0.948951  Biso 1.000000     C
    C   1.0     0.791440     0.806410     0.637340  Biso 1.000000     C
    C   1.0     0.894498     0.912283     0.683581  Biso 1.000000     C
    C   1.0     0.855441     0.874615     0.627158  Biso 1.000000     C
    C   1.0     0.244461     0.855934     0.118441  Biso 1.000000     C
    C   1.0     0.331853     0.761465     0.101467  Biso 1.000000     C
    C   1.0     0.336821     0.716292     0.040051  Biso 1.000000     C
    C   1.0     0.682291     0.700528     0.595087  Biso 1.000000     C
    C   1.0     0.846958     0.867878     0.513091  Biso 1.000000     C
    C   1.0     0.882487     0.906214     0.564891  Biso 1.000000     C
    C   1.0     0.781626     0.801724     0.523812  Biso 1.000000     C
    C   1.0     0.752846     0.771265     0.585754  Biso 1.000000     C
    C   1.0     0.320410     0.850159     0.214077  Biso 1.000000     C
    C   1.0     0.407356     0.755961     0.197228  Biso 1.000000     C
    C   1.0     0.879681     0.894343     0.445855  Biso 1.000000     C
    C   1.0     0.213510     0.837612     0.627282  Biso 1.000000     C
    C   1.0     0.391323     0.767143     0.697870  Biso 1.000000     C
    C   1.0     0.300117     0.857906     0.714252  Biso 1.000000     C
    C   1.0     0.306212     0.748152     0.610041  Biso 1.000000     C
    C   1.0     0.311956     0.696477     0.550679  Biso 1.000000     C
    C   1.0     0.192660     0.209586     0.862690  Biso 1.000000     C
    C   1.0     0.086163     0.107292     0.816369  Biso 1.000000     C
    C   1.0     0.124219     0.145857     0.872850  Biso 1.000000     C
    C   1.0     0.144310     0.755143     0.381647  Biso 1.000000     C
    C   1.0     0.239145     0.668106     0.398329  Biso 1.000000     C
    C   1.0     0.284472     0.663533     0.459596  Biso 1.000000     C
    C   1.0     0.299520     0.317750     0.904926  Biso 1.000000     C
    C   1.0     0.131687     0.153586     0.986927  Biso 1.000000     C
    C   1.0     0.092977     0.118472     0.935117  Biso 1.000000     C
    C   1.0     0.198050     0.218699     0.976223  Biso 1.000000     C
    C   1.0     0.228365     0.247626     0.914282  Biso 1.000000     C
    C   1.0     0.150100     0.678717     0.286046  Biso 1.000000     C
    C   1.0     0.244613     0.592078     0.302643  Biso 1.000000     C
    C   1.0     0.105304     0.120651     0.054170  Biso 1.000000     C
    N   1.0     0.891930     0.211220     0.178886  Biso 1.000000     N
    N   1.0     0.710821     0.394678     0.146300  Biso 1.000000     N
    N   1.0     0.606600     0.397662     0.034734  Biso 1.000000     N
    N   1.0     0.734329     0.237343     0.005816  Biso 1.000000     N
    N   1.0     0.585377     0.379725     0.975501  Biso 1.000000     N
    N   1.0     0.761242     0.100297     0.825440  Biso 1.000000     N
    N   1.0     0.587129     0.289669     0.858623  Biso 1.000000     N
    N   1.0     0.789151     0.107954     0.320898  Biso 1.000000     N
    N   1.0     0.605424     0.288500     0.353922  Biso 1.000000     N
    N   1.0     0.601579     0.392582     0.465837  Biso 1.000000     N
    N   1.0     0.762055     0.265423     0.494383  Biso 1.000000     N
    N   1.0     0.619403     0.413920     0.525057  Biso 1.000000     N
    N   1.0     0.899617     0.239557     0.674293  Biso 1.000000     N
    N   1.0     0.709624     0.412997     0.641643  Biso 1.000000     N
    N   1.0     0.108091     0.788753     0.821103  Biso 1.000000     N
    N   1.0     0.289203     0.605297     0.853687  Biso 1.000000     N
    N   1.0     0.393430     0.602319     0.965250  Biso 1.000000     N
    N   1.0     0.265695     0.762632     0.994171  Biso 1.000000     N
    N   1.0     0.414654     0.620256     0.024483  Biso 1.000000     N
    N   1.0     0.238790     0.899685     0.174544  Biso 1.000000     N
    N   1.0     0.412900     0.710310     0.141361  Biso 1.000000     N
    N   1.0     0.210885     0.892009     0.679089  Biso 1.000000     N
    N   1.0     0.394612     0.711461     0.646067  Biso 1.000000     N
    N   1.0     0.398464     0.607386     0.534148  Biso 1.000000     N
    N   1.0     0.237987     0.734544     0.505602  Biso 1.000000     N
    N   1.0     0.380641     0.586050     0.474927  Biso 1.000000     N
    N   1.0     0.100428     0.760415     0.325692  Biso 1.000000     N
    N   1.0     0.290422     0.586976     0.358340  Biso 1.000000     N
    O   1.0     0.102407     0.145830     0.264252  Biso 1.000000     O
    O   1.0     0.080531     0.000655     0.322105  Biso 1.000000     O
    O   1.0     0.057502     0.048700     0.564378  Biso 1.000000     O
    O   1.0     0.346553     0.328681     0.349744  Biso 1.000000     O
    O   1.0     0.346761     0.328533     0.456002  Biso 1.000000     O
    O   1.0     0.155273     0.143081     0.599360  Biso 1.000000     O
    O   1.0     0.857159     0.894001     0.236011  Biso 1.000000     O
    O   1.0     0.999698     0.919087     0.177759  Biso 1.000000     O
    O   1.0     0.951678     0.942191     0.935606  Biso 1.000000     O
    O   1.0     0.670974     0.653783     0.150223  Biso 1.000000     O
    O   1.0     0.671395     0.653220     0.043965  Biso 1.000000     O
    O   1.0     0.857169     0.844583     0.900556  Biso 1.000000     O
    O   1.0     0.897626     0.854151     0.735735  Biso 1.000000     O
    O   1.0     0.919502     0.999326     0.677880  Biso 1.000000     O
    O   1.0     0.942535     0.951278     0.435608  Biso 1.000000     O
    O   1.0     0.653480     0.671301     0.650242  Biso 1.000000     O
    O   1.0     0.653272     0.671449     0.543983  Biso 1.000000     O
    O   1.0     0.844768     0.856892     0.400628  Biso 1.000000     O
    O   1.0     0.142892     0.105956     0.763977  Biso 1.000000     O
    O   1.0     0.000344     0.080884     0.822227  Biso 1.000000     O
    O   1.0     0.048355     0.057792     0.064381  Biso 1.000000     O
    O   1.0     0.329062     0.346190     0.849761  Biso 1.000000     O
    O   1.0     0.328639     0.346762     0.956019  Biso 1.000000     O
    O   1.0     0.142862     0.155403     0.099429  Biso 1.000000     O
   Cd   1.0     0.071670     0.063510     0.181213  Biso 1.000000    Cd
   Cd   1.0     0.568335     0.559056     0.087988  Biso 1.000000    Cd
   Cd   1.0     0.937223     0.927561     0.318900  Biso 1.000000    Cd
   Cd   1.0     0.441603     0.431013     0.411965  Biso 1.000000    Cd
   Cd   1.0     0.928364     0.936470     0.818772  Biso 1.000000    Cd
   Cd   1.0     0.431699     0.440925     0.911995  Biso 1.000000    Cd
   Cd   1.0     0.062820     0.072407     0.681086  Biso 1.000000    Cd
   Cd   1.0     0.558440     0.568958     0.588020  Biso 1.000000    Cd
