#======================================================================

# CRYSTAL DATA

#----------------------------------------------------------------------

data_VESTA_phase_1


_pd_phase_name                         MOF
_cell_length_a                         18.48800
_cell_length_b                         18.47500
_cell_length_c                         18.45100
_cell_angle_alpha                      59.88800
_cell_angle_beta                       59.92300
_cell_angle_gamma                      59.96600
_symmetry_space_group_name_H-M         "P 1"
_symmetry_Int_Tables_number            1

loop_
_symmetry_equiv_pos_as_xyz
   "x, y, z"

loop_
   _atom_site_label
   _atom_site_occupancy
   _atom_site_fract_x
   _atom_site_fract_y
   _atom_site_fract_z
   _atom_site_adp_type
   _atom_site_B_iso_or_equiv
   _atom_site_type_symbol
    H   1.0     0.836833     0.069432     0.359888  Biso 1.000000     H
    H   1.0     0.740943     0.973712     0.455081  Biso 1.000000     H
    H   1.0     0.359518     0.836658     0.069717  Biso 1.000000     H
    H   1.0     0.454943     0.740646     0.974148  Biso 1.000000     H
    H   1.0     0.069189     0.359628     0.836103  Biso 1.000000     H
    H   1.0     0.973242     0.455061     0.740475  Biso 1.000000     H
    H   1.0     0.069256     0.836538     0.359638  Biso 1.000000     H
    H   1.0     0.973494     0.740719     0.454849  Biso 1.000000     H
    H   1.0     0.836982     0.359596     0.069817  Biso 1.000000     H
    H   1.0     0.740898     0.455016     0.974282  Biso 1.000000     H
    H   1.0     0.359837     0.069342     0.836036  Biso 1.000000     H
    H   1.0     0.455245     0.973429     0.740376  Biso 1.000000     H
    H   1.0     0.356594     0.069499     0.357401  Biso 1.000000     H
    H   1.0     0.452389     0.974275     0.452782  Biso 1.000000     H
    H   1.0     0.357322     0.836668     0.357101  Biso 1.000000     H
    H   1.0     0.453722     0.740817     0.452958  Biso 1.000000     H
    H   1.0     0.356540     0.356979     0.069701  Biso 1.000000     H
    H   1.0     0.452186     0.452491     0.974671  Biso 1.000000     H
    H   1.0     0.357641     0.357308     0.836068  Biso 1.000000     H
    H   1.0     0.453875     0.453327     0.740400  Biso 1.000000     H
    H   1.0     0.069574     0.356943     0.357257  Biso 1.000000     H
    H   1.0     0.974297     0.452648     0.452708  Biso 1.000000     H
    H   1.0     0.837222     0.356947     0.357112  Biso 1.000000     H
    H   1.0     0.741290     0.453248     0.453042  Biso 1.000000     H
    H   1.0     0.930771     0.163422     0.640344  Biso 1.000000     H
    H   1.0     0.026533     0.259240     0.545133  Biso 1.000000     H
    H   1.0     0.163041     0.640356     0.930160  Biso 1.000000     H
    H   1.0     0.259124     0.544936     0.025695  Biso 1.000000     H
    H   1.0     0.640187     0.930621     0.163940  Biso 1.000000     H
    H   1.0     0.544777     0.026534     0.259601  Biso 1.000000     H
    H   1.0     0.163194     0.930527     0.640092  Biso 1.000000     H
    H   1.0     0.259084     0.026247     0.544900  Biso 1.000000     H
    H   1.0     0.640513     0.163305     0.930260  Biso 1.000000     H
    H   1.0     0.545086     0.259317     0.025829  Biso 1.000000     H
    H   1.0     0.930834     0.640324     0.163873  Biso 1.000000     H
    H   1.0     0.026780     0.544891     0.259501  Biso 1.000000     H
    H   1.0     0.930450     0.643012     0.642726  Biso 1.000000     H
    H   1.0     0.025727     0.547307     0.547275  Biso 1.000000     H
    H   1.0     0.162801     0.643001     0.642880  Biso 1.000000     H
    H   1.0     0.258733     0.546701     0.546950  Biso 1.000000     H
    H   1.0     0.643486     0.642985     0.930272  Biso 1.000000     H
    H   1.0     0.547844     0.547469     0.025299  Biso 1.000000     H
    H   1.0     0.642391     0.642643     0.163909  Biso 1.000000     H
    H   1.0     0.546163     0.546618     0.259575  Biso 1.000000     H
    H   1.0     0.643431     0.930464     0.642574  Biso 1.000000     H
    H   1.0     0.547636     0.025688     0.547192  Biso 1.000000     H
    H   1.0     0.642688     0.163295     0.642889  Biso 1.000000     H
    H   1.0     0.546288     0.259146     0.547032  Biso 1.000000     H
    C   1.0     0.866068     0.997405     0.381058  Biso 1.000000     C
    C   1.0     0.812783     0.944174     0.433941  Biso 1.000000     C
    C   1.0     0.380856     0.865931     0.997550  Biso 1.000000     C
    C   1.0     0.433851     0.812565     0.944413  Biso 1.000000     C
    C   1.0     0.997280     0.380899     0.865668  Biso 1.000000     C
    C   1.0     0.943898     0.433906     0.812535  Biso 1.000000     C
    C   1.0     0.997341     0.865886     0.380917  Biso 1.000000     C
    C   1.0     0.944072     0.812641     0.433806  Biso 1.000000     C
    C   1.0     0.866134     0.380879     0.997649  Biso 1.000000     C
    C   1.0     0.812733     0.433879     0.944529  Biso 1.000000     C
    C   1.0     0.381043     0.997320     0.865589  Biso 1.000000     C
    C   1.0     0.434032     0.943972     0.812437  Biso 1.000000     C
    C   1.0     0.293891     0.016108     0.294309  Biso 1.000000     C
    C   1.0     0.351288     0.958725     0.351573  Biso 1.000000     C
    C   1.0     0.378000     0.997612     0.378470  Biso 1.000000     C
    C   1.0     0.431398     0.944526     0.431629  Biso 1.000000     C
    C   1.0     0.378587     0.865958     0.378474  Biso 1.000000     C
    C   1.0     0.431991     0.812854     0.431586  Biso 1.000000     C
    C   1.0     0.458793     0.851770     0.458545  Biso 1.000000     C
    C   1.0     0.516238     0.794501     0.515679  Biso 1.000000     C
    C   1.0     0.294049     0.294160     0.015874  Biso 1.000000     C
    C   1.0     0.351414     0.351461     0.958519  Biso 1.000000     C
    C   1.0     0.377989     0.378213     0.997678  Biso 1.000000     C
    C   1.0     0.431308     0.431450     0.944705  Biso 1.000000     C
    C   1.0     0.378790     0.378578     0.865571  Biso 1.000000     C
    C   1.0     0.432107     0.431778     0.812575  Biso 1.000000     C
    C   1.0     0.458762     0.458600     0.851769  Biso 1.000000     C
    C   1.0     0.516128     0.515819     0.794559  Biso 1.000000     C
    C   1.0     0.016392     0.293903     0.294265  Biso 1.000000     C
    C   1.0     0.959048     0.351274     0.351522  Biso 1.000000     C
    C   1.0     0.997799     0.378161     0.378381  Biso 1.000000     C
    C   1.0     0.944672     0.431509     0.431572  Biso 1.000000     C
    C   1.0     0.866389     0.378349     0.378476  Biso 1.000000     C
    C   1.0     0.813246     0.431695     0.431622  Biso 1.000000     C
    C   1.0     0.852025     0.458653     0.458563  Biso 1.000000     C
    C   1.0     0.794720     0.516006     0.515759  Biso 1.000000     C
    C   1.0     0.016058     0.015975     0.295822  Biso 1.000000     C
    C   1.0     0.958720     0.958643     0.353949  Biso 1.000000     C
    C   1.0     0.851403     0.851402     0.460626  Biso 1.000000     C
    C   1.0     0.794162     0.794172     0.517028  Biso 1.000000     C
    C   1.0     0.295668     0.016086     0.015813  Biso 1.000000     C
    C   1.0     0.353850     0.958683     0.958528  Biso 1.000000     C
    C   1.0     0.460762     0.851204     0.851458  Biso 1.000000     C
    C   1.0     0.517268     0.793932     0.794264  Biso 1.000000     C
    C   1.0     0.016191     0.295596     0.015871  Biso 1.000000     C
    C   1.0     0.958778     0.353789     0.958605  Biso 1.000000     C
    C   1.0     0.851236     0.460711     0.851575  Biso 1.000000     C
    C   1.0     0.793950     0.517204     0.794379  Biso 1.000000     C
    C   1.0     0.002686     0.134074     0.619065  Biso 1.000000     C
    C   1.0     0.055955     0.187318     0.566176  Biso 1.000000     C
    C   1.0     0.133889     0.619076     0.002327  Biso 1.000000     C
    C   1.0     0.187290     0.566071     0.055448  Biso 1.000000     C
    C   1.0     0.618981     0.002643     0.134388  Biso 1.000000     C
    C   1.0     0.565993     0.055992     0.187540  Biso 1.000000     C
    C   1.0     0.133959     0.002555     0.618923  Biso 1.000000     C
    C   1.0     0.187244     0.055786     0.566041  Biso 1.000000     C
    C   1.0     0.619171     0.134032     0.002427  Biso 1.000000     C
    C   1.0     0.566178     0.187398     0.055564  Biso 1.000000     C
    C   1.0     0.002742     0.619056     0.134308  Biso 1.000000     C
    C   1.0     0.056125     0.566044     0.187441  Biso 1.000000     C
    C   1.0     0.983630     0.706055     0.705716  Biso 1.000000     C
    C   1.0     0.040975     0.648679     0.648464  Biso 1.000000     C
    C   1.0     0.002224     0.621793     0.621604  Biso 1.000000     C
    C   1.0     0.055352     0.568444     0.568413  Biso 1.000000     C
    C   1.0     0.133634     0.621601     0.621514  Biso 1.000000     C
    C   1.0     0.186778     0.568255     0.568368  Biso 1.000000     C
    C   1.0     0.148000     0.541300     0.541422  Biso 1.000000     C
    C   1.0     0.205305     0.483952     0.484222  Biso 1.000000     C
    C   1.0     0.705976     0.705802     0.984104  Biso 1.000000     C
    C   1.0     0.648614     0.648498     0.041457  Biso 1.000000     C
    C   1.0     0.622041     0.621745     0.002296  Biso 1.000000     C
    C   1.0     0.568720     0.568510     0.055268  Biso 1.000000     C
    C   1.0     0.621244     0.621372     0.134405  Biso 1.000000     C
    C   1.0     0.567926     0.568173     0.187399  Biso 1.000000     C
    C   1.0     0.541271     0.541353     0.148203  Biso 1.000000     C
    C   1.0     0.483901     0.484139     0.205413  Biso 1.000000     C
    C   1.0     0.706126     0.983857     0.705673  Biso 1.000000     C
    C   1.0     0.648730     0.041238     0.648409  Biso 1.000000     C
    C   1.0     0.622019     0.002351     0.621511  Biso 1.000000     C
    C   1.0     0.568626     0.055437     0.568347  Biso 1.000000     C
    C   1.0     0.621424     0.134005     0.621515  Biso 1.000000     C
    C   1.0     0.568025     0.187109     0.568399  Biso 1.000000     C
    C   1.0     0.541226     0.148193     0.541436  Biso 1.000000     C
    C   1.0     0.483785     0.205462     0.484298  Biso 1.000000     C
    C   1.0     0.983968     0.983985     0.704156  Biso 1.000000     C
    C   1.0     0.041306     0.041317     0.646032  Biso 1.000000     C
    C   1.0     0.148624     0.148557     0.539356  Biso 1.000000     C
    C   1.0     0.205865     0.205788     0.482951  Biso 1.000000     C
    C   1.0     0.983833     0.704362     0.984105  Biso 1.000000     C
    C   1.0     0.041245     0.646163     0.041371  Biso 1.000000     C
    C   1.0     0.148786     0.539243     0.148401  Biso 1.000000     C
    C   1.0     0.206072     0.482750     0.205598  Biso 1.000000     C
    C   1.0     0.704357     0.983878     0.984164  Biso 1.000000     C
    C   1.0     0.646178     0.041280     0.041449  Biso 1.000000     C
    C   1.0     0.539263     0.148759     0.148519  Biso 1.000000     C
    C   1.0     0.482757     0.206031     0.205714  Biso 1.000000     C
    O   1.0     0.710301     0.833592     0.538919  Biso 1.000000     O
    O   1.0     0.976541     0.099814     0.273376  Biso 1.000000     O
    O   1.0     0.539050     0.709975     0.833870  Biso 1.000000     O
    O   1.0     0.272973     0.976451     0.099819  Biso 1.000000     O
    O   1.0     0.833330     0.539180     0.710276  Biso 1.000000     O
    O   1.0     0.099927     0.272959     0.976015  Biso 1.000000     O
    O   1.0     0.833532     0.710228     0.538861  Biso 1.000000     O
    O   1.0     0.099804     0.976318     0.273202  Biso 1.000000     O
    O   1.0     0.710085     0.539022     0.833953  Biso 1.000000     O
    O   1.0     0.976700     0.273127     0.099875  Biso 1.000000     O
    O   1.0     0.539320     0.833385     0.710150  Biso 1.000000     O
    O   1.0     0.273240     0.099930     0.975969  Biso 1.000000     O
    O   1.0     0.538206     0.834110     0.537867  Biso 1.000000     O
    O   1.0     0.538650     0.710638     0.537611  Biso 1.000000     O
    O   1.0     0.271870     0.099895     0.272186  Biso 1.000000     O
    O   1.0     0.271800     0.976445     0.272369  Biso 1.000000     O
    O   1.0     0.538042     0.537875     0.834349  Biso 1.000000     O
    O   1.0     0.538529     0.537945     0.710530  Biso 1.000000     O
    O   1.0     0.271957     0.271986     0.099819  Biso 1.000000     O
    O   1.0     0.272036     0.272278     0.976067  Biso 1.000000     O
    O   1.0     0.834204     0.538090     0.537957  Biso 1.000000     O
    O   1.0     0.710956     0.538237     0.537745  Biso 1.000000     O
    O   1.0     0.100093     0.271972     0.272097  Biso 1.000000     O
    O   1.0     0.976827     0.271708     0.272370  Biso 1.000000     O
    O   1.0     0.654939     0.654832     0.654910  Biso 1.000000     O
    O   1.0     0.155208     0.155043     0.154916  Biso 1.000000     O
    O   1.0     0.166494     0.289732     0.461113  Biso 1.000000     O
    O   1.0     0.900223     0.023641     0.726780  Biso 1.000000     O
    O   1.0     0.289937     0.460937     0.166024  Biso 1.000000     O
    O   1.0     0.023324     0.726830     0.900100  Biso 1.000000     O
    O   1.0     0.460702     0.166578     0.289828  Biso 1.000000     O
    O   1.0     0.726789     0.900033     0.024009  Biso 1.000000     O
    O   1.0     0.289726     0.166368     0.461063  Biso 1.000000     O
    O   1.0     0.023486     0.900145     0.726597  Biso 1.000000     O
    O   1.0     0.460969     0.289988     0.166109  Biso 1.000000     O
    O   1.0     0.727052     0.023512     0.900158  Biso 1.000000     O
    O   1.0     0.166692     0.460785     0.289701  Biso 1.000000     O
    O   1.0     0.900097     0.726994     0.023960  Biso 1.000000     O
    O   1.0     0.165821     0.461869     0.462022  Biso 1.000000     O
    O   1.0     0.289069     0.461728     0.462228  Biso 1.000000     O
    O   1.0     0.899929     0.727996     0.727877  Biso 1.000000     O
    O   1.0     0.023196     0.728248     0.727612  Biso 1.000000     O
    O   1.0     0.461979     0.462090     0.165623  Biso 1.000000     O
    O   1.0     0.461511     0.462001     0.289442  Biso 1.000000     O
    O   1.0     0.728059     0.727989     0.900159  Biso 1.000000     O
    O   1.0     0.727984     0.727686     0.023914  Biso 1.000000     O
    O   1.0     0.461817     0.165854     0.462109  Biso 1.000000     O
    O   1.0     0.461372     0.289325     0.462368  Biso 1.000000     O
    O   1.0     0.728152     0.900070     0.727791  Biso 1.000000     O
    O   1.0     0.728227     0.023520     0.727603  Biso 1.000000     O
    O   1.0     0.345083     0.345132     0.345066  Biso 1.000000     O
    O   1.0     0.844816     0.844920     0.845062  Biso 1.000000     O
   Zn   1.0     0.611663     0.785329     0.611315  Biso 1.000000    Zn
   Zn   1.0     0.198571     0.024371     0.198735  Biso 1.000000    Zn
   Zn   1.0     0.611481     0.611310     0.785646  Biso 1.000000    Zn
   Zn   1.0     0.198733     0.198712     0.023993  Biso 1.000000    Zn
   Zn   1.0     0.785284     0.611553     0.611412  Biso 1.000000    Zn
   Zn   1.0     0.024701     0.198527     0.198737  Biso 1.000000    Zn
   Zn   1.0     0.611743     0.611399     0.611180  Biso 1.000000    Zn
   Zn   1.0     0.198528     0.198523     0.198620  Biso 1.000000    Zn
   Zn   1.0     0.214738     0.388410     0.388565  Biso 1.000000    Zn
   Zn   1.0     0.975322     0.801435     0.801239  Biso 1.000000    Zn
   Zn   1.0     0.388539     0.388655     0.214330  Biso 1.000000    Zn
   Zn   1.0     0.801287     0.801252     0.975985  Biso 1.000000    Zn
   Zn   1.0     0.388360     0.214636     0.388662  Biso 1.000000    Zn
   Zn   1.0     0.801452     0.975592     0.801241  Biso 1.000000    Zn
   Zn   1.0     0.388281     0.388564     0.388795  Biso 1.000000    Zn
   Zn   1.0     0.801495     0.801444     0.801357  Biso 1.000000    Zn
