#======================================================================

# CRYSTAL DATA

#----------------------------------------------------------------------

data_VESTA_phase_1


_pd_phase_name                         MOF
_cell_length_a                         18.46400
_cell_length_b                         18.45600
_cell_length_c                         18.45400
_cell_angle_alpha                      59.99800
_cell_angle_beta                       60.02600
_cell_angle_gamma                      60.02900
_symmetry_space_group_name_H-M         "P 1"
_symmetry_Int_Tables_number            1

loop_
_symmetry_equiv_pos_as_xyz
   "x, y, z"

loop_
   _atom_site_label
   _atom_site_occupancy
   _atom_site_fract_x
   _atom_site_fract_y
   _atom_site_fract_z
   _atom_site_adp_type
   _atom_site_B_iso_or_equiv
   _atom_site_type_symbol
    H   1.0     0.359539     0.836527     0.069412  Biso 1.000000     H
    H   1.0     0.455087     0.740675     0.973705  Biso 1.000000     H
    H   1.0     0.069236     0.359260     0.836528  Biso 1.000000     H
    H   1.0     0.973408     0.454841     0.740707  Biso 1.000000     H
    H   1.0     0.836686     0.069398     0.359847  Biso 1.000000     H
    H   1.0     0.740781     0.973685     0.455371  Biso 1.000000     H
    H   1.0     0.836693     0.359853     0.069440  Biso 1.000000     H
    H   1.0     0.740773     0.455394     0.973756  Biso 1.000000     H
    H   1.0     0.359510     0.069371     0.836522  Biso 1.000000     H
    H   1.0     0.455056     0.973637     0.740679  Biso 1.000000     H
    H   1.0     0.069247     0.836541     0.359309  Biso 1.000000     H
    H   1.0     0.973438     0.740703     0.454873  Biso 1.000000     H
    H   1.0     0.356735     0.069478     0.357484  Biso 1.000000     H
    H   1.0     0.452371     0.974220     0.453024  Biso 1.000000     H
    H   1.0     0.357225     0.836742     0.356793  Biso 1.000000     H
    H   1.0     0.453458     0.740833     0.452826  Biso 1.000000     H
    H   1.0     0.356733     0.357428     0.069494  Biso 1.000000     H
    H   1.0     0.452374     0.452970     0.974263  Biso 1.000000     H
    H   1.0     0.357224     0.356822     0.836708  Biso 1.000000     H
    H   1.0     0.453453     0.452856     0.740812  Biso 1.000000     H
    H   1.0     0.069498     0.357180     0.357257  Biso 1.000000     H
    H   1.0     0.974153     0.452762     0.452821  Biso 1.000000     H
    H   1.0     0.837037     0.356930     0.356902  Biso 1.000000     H
    H   1.0     0.741073     0.453054     0.453002  Biso 1.000000     H
    H   1.0     0.163248     0.640153     0.930589  Biso 1.000000     H
    H   1.0     0.259168     0.544613     0.026273  Biso 1.000000     H
    H   1.0     0.640430     0.930635     0.163507  Biso 1.000000     H
    H   1.0     0.544885     0.026369     0.259350  Biso 1.000000     H
    H   1.0     0.930695     0.163465     0.640720  Biso 1.000000     H
    H   1.0     0.026504     0.259303     0.545156  Biso 1.000000     H
    H   1.0     0.640402     0.163479     0.930616  Biso 1.000000     H
    H   1.0     0.544856     0.259331     0.026324  Biso 1.000000     H
    H   1.0     0.930705     0.640746     0.163501  Biso 1.000000     H
    H   1.0     0.026533     0.545166     0.259322  Biso 1.000000     H
    H   1.0     0.163255     0.930608     0.640181  Biso 1.000000     H
    H   1.0     0.259161     0.026321     0.544657  Biso 1.000000     H
    H   1.0     0.930443     0.642824     0.642774  Biso 1.000000     H
    H   1.0     0.025788     0.547245     0.547206  Biso 1.000000     H
    H   1.0     0.162905     0.643074     0.643129  Biso 1.000000     H
    H   1.0     0.258869     0.546953     0.547025  Biso 1.000000     H
    H   1.0     0.643209     0.642577     0.930535  Biso 1.000000     H
    H   1.0     0.547565     0.547039     0.025766  Biso 1.000000     H
    H   1.0     0.642720     0.643182     0.163321  Biso 1.000000     H
    H   1.0     0.546487     0.547151     0.259217  Biso 1.000000     H
    H   1.0     0.643206     0.930528     0.642546  Biso 1.000000     H
    H   1.0     0.547571     0.025786     0.547004  Biso 1.000000     H
    H   1.0     0.642713     0.163264     0.643239  Biso 1.000000     H
    H   1.0     0.546482     0.259173     0.547204  Biso 1.000000     H
    C   1.0     0.380824     0.865861     0.997408  Biso 1.000000     C
    C   1.0     0.433911     0.812598     0.944169  Biso 1.000000     C
    C   1.0     0.997256     0.380697     0.865880  Biso 1.000000     C
    C   1.0     0.943977     0.433787     0.812641  Biso 1.000000     C
    C   1.0     0.865929     0.997392     0.381027  Biso 1.000000     C
    C   1.0     0.812645     0.944157     0.434094  Biso 1.000000     C
    C   1.0     0.865931     0.381026     0.997435  Biso 1.000000     C
    C   1.0     0.812637     0.434101     0.944209  Biso 1.000000     C
    C   1.0     0.380806     0.997365     0.865868  Biso 1.000000     C
    C   1.0     0.433894     0.944119     0.812613  Biso 1.000000     C
    C   1.0     0.997265     0.865875     0.380732  Biso 1.000000     C
    C   1.0     0.943996     0.812626     0.433812  Biso 1.000000     C
    C   1.0     0.293933     0.016148     0.294168  Biso 1.000000     C
    C   1.0     0.351293     0.958760     0.351467  Biso 1.000000     C
    C   1.0     0.378043     0.997617     0.378495  Biso 1.000000     C
    C   1.0     0.431360     0.944508     0.431742  Biso 1.000000     C
    C   1.0     0.378506     0.865995     0.378298  Biso 1.000000     C
    C   1.0     0.431821     0.812866     0.431504  Biso 1.000000     C
    C   1.0     0.458631     0.851752     0.458625  Biso 1.000000     C
    C   1.0     0.515971     0.794452     0.515872  Biso 1.000000     C
    C   1.0     0.293927     0.294155     0.016131  Biso 1.000000     C
    C   1.0     0.351293     0.351456     0.958757  Biso 1.000000     C
    C   1.0     0.378047     0.378460     0.997635  Biso 1.000000     C
    C   1.0     0.431361     0.431709     0.944533  Biso 1.000000     C
    C   1.0     0.378505     0.378307     0.865978  Biso 1.000000     C
    C   1.0     0.431817     0.431517     0.812857  Biso 1.000000     C
    C   1.0     0.458622     0.458622     0.851763  Biso 1.000000     C
    C   1.0     0.515955     0.515875     0.794469  Biso 1.000000     C
    C   1.0     0.016317     0.294055     0.294083  Biso 1.000000     C
    C   1.0     0.958903     0.351383     0.351397  Biso 1.000000     C
    C   1.0     0.997662     0.378312     0.378351  Biso 1.000000     C
    C   1.0     0.944521     0.431581     0.431625  Biso 1.000000     C
    C   1.0     0.866209     0.378359     0.378341  Biso 1.000000     C
    C   1.0     0.813050     0.431607     0.431591  Biso 1.000000     C
    C   1.0     0.851836     0.458609     0.458625  Biso 1.000000     C
    C   1.0     0.794512     0.515892     0.515904  Biso 1.000000     C
    C   1.0     0.295474     0.015930     0.015937  Biso 1.000000     C
    C   1.0     0.353685     0.958615     0.958637  Biso 1.000000     C
    C   1.0     0.460750     0.851346     0.851383  Biso 1.000000     C
    C   1.0     0.517300     0.794116     0.794156  Biso 1.000000     C
    C   1.0     0.015990     0.295460     0.015939  Biso 1.000000     C
    C   1.0     0.958608     0.353727     0.958648  Biso 1.000000     C
    C   1.0     0.851279     0.460784     0.851426  Biso 1.000000     C
    C   1.0     0.794029     0.517319     0.794203  Biso 1.000000     C
    C   1.0     0.015986     0.015939     0.295485  Biso 1.000000     C
    C   1.0     0.958607     0.958628     0.353745  Biso 1.000000     C
    C   1.0     0.851298     0.851388     0.460782  Biso 1.000000     C
    C   1.0     0.794053     0.794162     0.517308  Biso 1.000000     C
    C   1.0     0.134010     0.618980     0.002594  Biso 1.000000     C
    C   1.0     0.187304     0.565903     0.055820  Biso 1.000000     C
    C   1.0     0.619136     0.002641     0.134161  Biso 1.000000     C
    C   1.0     0.566046     0.055887     0.187416  Biso 1.000000     C
    C   1.0     0.002676     0.134131     0.619297  Biso 1.000000     C
    C   1.0     0.055945     0.187380     0.566217  Biso 1.000000     C
    C   1.0     0.619118     0.134145     0.002621  Biso 1.000000     C
    C   1.0     0.566030     0.187407     0.055860  Biso 1.000000     C
    C   1.0     0.002685     0.619310     0.134149  Biso 1.000000     C
    C   1.0     0.055964     0.566218     0.187388  Biso 1.000000     C
    C   1.0     0.134013     0.002614     0.619001  Biso 1.000000     C
    C   1.0     0.187296     0.055849     0.565935  Biso 1.000000     C
    C   1.0     0.983625     0.705953     0.705943  Biso 1.000000     C
    C   1.0     0.041039     0.648624     0.648629  Biso 1.000000     C
    C   1.0     0.002279     0.621695     0.621677  Biso 1.000000     C
    C   1.0     0.055421     0.568422     0.568406  Biso 1.000000     C
    C   1.0     0.133733     0.621648     0.621687  Biso 1.000000     C
    C   1.0     0.186891     0.568396     0.568440  Biso 1.000000     C
    C   1.0     0.148106     0.541397     0.541403  Biso 1.000000     C
    C   1.0     0.205430     0.484116     0.484123  Biso 1.000000     C
    C   1.0     0.706016     0.705851     0.983897  Biso 1.000000     C
    C   1.0     0.648648     0.648550     0.041271  Biso 1.000000     C
    C   1.0     0.621893     0.621547     0.002394  Biso 1.000000     C
    C   1.0     0.568581     0.568297     0.055496  Biso 1.000000     C
    C   1.0     0.621435     0.621700     0.134051  Biso 1.000000     C
    C   1.0     0.568126     0.568488     0.187172  Biso 1.000000     C
    C   1.0     0.541318     0.541385     0.148265  Biso 1.000000     C
    C   1.0     0.483985     0.484133     0.205560  Biso 1.000000     C
    C   1.0     0.706008     0.983859     0.705862  Biso 1.000000     C
    C   1.0     0.648647     0.041246     0.648564  Biso 1.000000     C
    C   1.0     0.621899     0.002389     0.621533  Biso 1.000000     C
    C   1.0     0.568581     0.055498     0.568287  Biso 1.000000     C
    C   1.0     0.621434     0.134011     0.621733  Biso 1.000000     C
    C   1.0     0.568119     0.187140     0.568527  Biso 1.000000     C
    C   1.0     0.541309     0.148254     0.541405  Biso 1.000000     C
    C   1.0     0.483969     0.205554     0.484158  Biso 1.000000     C
    C   1.0     0.983951     0.704549     0.984090  Biso 1.000000     C
    C   1.0     0.041333     0.646281     0.041381  Biso 1.000000     C
    C   1.0     0.148662     0.539222     0.148603  Biso 1.000000     C
    C   1.0     0.205912     0.482689     0.205826  Biso 1.000000     C
    C   1.0     0.704468     0.984076     0.984092  Biso 1.000000     C
    C   1.0     0.646257     0.041390     0.041392  Biso 1.000000     C
    C   1.0     0.539192     0.148660     0.148646  Biso 1.000000     C
    C   1.0     0.482641     0.205890     0.205873  Biso 1.000000     C
    C   1.0     0.983955     0.984067     0.704543  Biso 1.000000     C
    C   1.0     0.041334     0.041378     0.646283  Biso 1.000000     C
    C   1.0     0.148644     0.148618     0.539247  Biso 1.000000     C
    C   1.0     0.205889     0.205844     0.482720  Biso 1.000000     C
    O   1.0     0.539210     0.833562     0.710192  Biso 1.000000     O
    O   1.0     0.272919     0.976294     0.099789  Biso 1.000000     O
    O   1.0     0.710142     0.539254     0.833641  Biso 1.000000     O
    O   1.0     0.099752     0.272763     0.976298  Biso 1.000000     O
    O   1.0     0.833434     0.710218     0.539204  Biso 1.000000     O
    O   1.0     0.976398     0.099775     0.273021  Biso 1.000000     O
    O   1.0     0.833411     0.539175     0.710247  Biso 1.000000     O
    O   1.0     0.976407     0.273024     0.099789  Biso 1.000000     O
    O   1.0     0.539180     0.710164     0.833612  Biso 1.000000     O
    O   1.0     0.272939     0.099774     0.976300  Biso 1.000000     O
    O   1.0     0.710166     0.833588     0.539247  Biso 1.000000     O
    O   1.0     0.099744     0.976302     0.272818  Biso 1.000000     O
    O   1.0     0.538046     0.834065     0.538073  Biso 1.000000     O
    O   1.0     0.538213     0.710583     0.537861  Biso 1.000000     O
    O   1.0     0.271976     0.099941     0.272085  Biso 1.000000     O
    O   1.0     0.271776     0.976495     0.272167  Biso 1.000000     O
    O   1.0     0.538051     0.538040     0.834097  Biso 1.000000     O
    O   1.0     0.538202     0.537874     0.710586  Biso 1.000000     O
    O   1.0     0.271971     0.272066     0.099936  Biso 1.000000     O
    O   1.0     0.271772     0.272170     0.976483  Biso 1.000000     O
    O   1.0     0.834047     0.538086     0.538068  Biso 1.000000     O
    O   1.0     0.710707     0.537980     0.537962  Biso 1.000000     O
    O   1.0     0.100052     0.272056     0.272082  Biso 1.000000     O
    O   1.0     0.976679     0.271938     0.272008  Biso 1.000000     O
    O   1.0     0.654815     0.654846     0.654869  Biso 1.000000     O
    O   1.0     0.155071     0.155002     0.155003  Biso 1.000000     O
    O   1.0     0.166530     0.460830     0.289782  Biso 1.000000     O
    O   1.0     0.023534     0.726983     0.900240  Biso 1.000000     O
    O   1.0     0.460761     0.289842     0.166417  Biso 1.000000     O
    O   1.0     0.727002     0.900232     0.023729  Biso 1.000000     O
    O   1.0     0.289776     0.166418     0.460782  Biso 1.000000     O
    O   1.0     0.900198     0.023705     0.727209  Biso 1.000000     O
    O   1.0     0.460732     0.166443     0.289837  Biso 1.000000     O
    O   1.0     0.727025     0.023711     0.900240  Biso 1.000000     O
    O   1.0     0.289799     0.460751     0.166388  Biso 1.000000     O
    O   1.0     0.900189     0.727244     0.023731  Biso 1.000000     O
    O   1.0     0.166508     0.289789     0.460826  Biso 1.000000     O
    O   1.0     0.023542     0.900231     0.727009  Biso 1.000000     O
    O   1.0     0.165895     0.461919     0.461962  Biso 1.000000     O
    O   1.0     0.289234     0.462023     0.462070  Biso 1.000000     O
    O   1.0     0.899890     0.727950     0.727946  Biso 1.000000     O
    O   1.0     0.023262     0.728065     0.728023  Biso 1.000000     O
    O   1.0     0.461893     0.461963     0.165932  Biso 1.000000     O
    O   1.0     0.461740     0.462132     0.289443  Biso 1.000000     O
    O   1.0     0.727974     0.727939     0.900092  Biso 1.000000     O
    O   1.0     0.728170     0.727836     0.023546  Biso 1.000000     O
    O   1.0     0.461898     0.165942     0.461953  Biso 1.000000     O
    O   1.0     0.461725     0.289423     0.462171  Biso 1.000000     O
    O   1.0     0.727974     0.900066     0.727936  Biso 1.000000     O
    O   1.0     0.728161     0.023511     0.727866  Biso 1.000000     O
    O   1.0     0.345127     0.345160     0.345159  Biso 1.000000     O
    O   1.0     0.844870     0.845004     0.845026  Biso 1.000000     O
   Zn   1.0     0.611518     0.785336     0.611526  Biso 1.000000    Zn
   Zn   1.0     0.198513     0.024331     0.198552  Biso 1.000000    Zn
   Zn   1.0     0.611502     0.611508     0.785379  Biso 1.000000    Zn
   Zn   1.0     0.198518     0.198536     0.024311  Biso 1.000000    Zn
   Zn   1.0     0.785200     0.611540     0.611548  Biso 1.000000    Zn
   Zn   1.0     0.024507     0.198536     0.198559  Biso 1.000000    Zn
   Zn   1.0     0.611430     0.611266     0.611264  Biso 1.000000    Zn
   Zn   1.0     0.198547     0.198606     0.198622  Biso 1.000000    Zn
   Zn   1.0     0.214742     0.388466     0.388480  Biso 1.000000    Zn
   Zn   1.0     0.975434     0.801471     0.801469  Biso 1.000000    Zn
   Zn   1.0     0.388440     0.388497     0.214649  Biso 1.000000    Zn
   Zn   1.0     0.801424     0.801470     0.975718  Biso 1.000000    Zn
   Zn   1.0     0.388424     0.214670     0.388502  Biso 1.000000    Zn
   Zn   1.0     0.801430     0.975675     0.801475  Biso 1.000000    Zn
   Zn   1.0     0.388512     0.388740     0.388764  Biso 1.000000    Zn
   Zn   1.0     0.801397     0.801400     0.801405  Biso 1.000000    Zn
