#======================================================================

# CRYSTAL DATA

#----------------------------------------------------------------------

data_VESTA_phase_1


_pd_phase_name                         MOF
_cell_length_a                         18.39400
_cell_length_b                         18.39400
_cell_length_c                         18.39400
_cell_angle_alpha                      60.41100
_cell_angle_beta                       60.40700
_cell_angle_gamma                      60.41100
_symmetry_space_group_name_H-M         "P 1"
_symmetry_Int_Tables_number            1

loop_
_symmetry_equiv_pos_as_xyz
   "x, y, z"

loop_
   _atom_site_label
   _atom_site_occupancy
   _atom_site_fract_x
   _atom_site_fract_y
   _atom_site_fract_z
   _atom_site_adp_type
   _atom_site_B_iso_or_equiv
   _atom_site_type_symbol
    H   1.0     0.048387     0.335888     0.567934  Biso 1.000000     H
    H   1.0     0.567922     0.048394     0.335875  Biso 1.000000     H
    H   1.0     0.335860     0.567927     0.048395  Biso 1.000000     H
    H   1.0     0.664125     0.951640     0.432068  Biso 1.000000     H
    H   1.0     0.951591     0.432100     0.664135  Biso 1.000000     H
    H   1.0     0.432070     0.664132     0.951627  Biso 1.000000     H
    H   1.0     0.951607     0.664131     0.432078  Biso 1.000000     H
    H   1.0     0.432068     0.951627     0.664136  Biso 1.000000     H
    H   1.0     0.664128     0.432093     0.951618  Biso 1.000000     H
    H   1.0     0.335864     0.048382     0.567943  Biso 1.000000     H
    H   1.0     0.048402     0.567918     0.335877  Biso 1.000000     H
    H   1.0     0.567919     0.335887     0.048386  Biso 1.000000     H
    H   1.0     0.049091     0.567422     0.049082  Biso 1.000000     H
    H   1.0     0.047081     0.335931     0.047078  Biso 1.000000     H
    H   1.0     0.049088     0.049079     0.567425  Biso 1.000000     H
    H   1.0     0.047089     0.047092     0.335919  Biso 1.000000     H
    H   1.0     0.567409     0.049083     0.049082  Biso 1.000000     H
    H   1.0     0.335906     0.047090     0.047091  Biso 1.000000     H
    H   1.0     0.432580     0.950933     0.950932  Biso 1.000000     H
    H   1.0     0.664083     0.952926     0.952923  Biso 1.000000     H
    H   1.0     0.950900     0.950942     0.432586  Biso 1.000000     H
    H   1.0     0.952898     0.952928     0.664092  Biso 1.000000     H
    H   1.0     0.950899     0.432596     0.950928  Biso 1.000000     H
    H   1.0     0.952909     0.664088     0.952931  Biso 1.000000     H
    C   1.0     0.026804     0.407783     0.538961  Biso 1.000000     C
    C   1.0     0.538951     0.026808     0.407774  Biso 1.000000     C
    C   1.0     0.407760     0.538963     0.026805  Biso 1.000000     C
    C   1.0     0.592225     0.973210     0.461044  Biso 1.000000     C
    C   1.0     0.973172     0.461063     0.592235  Biso 1.000000     C
    C   1.0     0.461038     0.592236     0.973201  Biso 1.000000     C
    C   1.0     0.973179     0.592235     0.461050  Biso 1.000000     C
    C   1.0     0.461038     0.973204     0.592236  Biso 1.000000     C
    C   1.0     0.592228     0.461056     0.973197  Biso 1.000000     C
    C   1.0     0.407764     0.026802     0.538967  Biso 1.000000     C
    C   1.0     0.026811     0.538956     0.407776  Biso 1.000000     C
    C   1.0     0.538950     0.407783     0.026801  Biso 1.000000     C
    C   1.0     0.110984     0.388588     0.110965  Biso 1.000000     C
    C   1.0     0.053640     0.446092     0.053643  Biso 1.000000     C
    C   1.0     0.027202     0.538646     0.027204  Biso 1.000000     C
    C   1.0     0.026076     0.407809     0.026083  Biso 1.000000     C
    C   1.0     0.110975     0.110980     0.388586  Biso 1.000000     C
    C   1.0     0.053647     0.053641     0.446089  Biso 1.000000     C
    C   1.0     0.027196     0.027207     0.538646  Biso 1.000000     C
    C   1.0     0.026076     0.026094     0.407800  Biso 1.000000     C
    C   1.0     0.388559     0.110988     0.110994  Biso 1.000000     C
    C   1.0     0.446070     0.053656     0.053641  Biso 1.000000     C
    C   1.0     0.538629     0.027200     0.027204  Biso 1.000000     C
    C   1.0     0.407787     0.026084     0.026089  Biso 1.000000     C
    C   1.0     0.611430     0.889020     0.889027  Biso 1.000000     C
    C   1.0     0.553919     0.946373     0.946360  Biso 1.000000     C
    C   1.0     0.461361     0.972812     0.972814  Biso 1.000000     C
    C   1.0     0.592202     0.973928     0.973929  Biso 1.000000     C
    C   1.0     0.889005     0.889048     0.611424  Biso 1.000000     C
    C   1.0     0.946352     0.946368     0.553922  Biso 1.000000     C
    C   1.0     0.972787     0.972817     0.461365  Biso 1.000000     C
    C   1.0     0.973908     0.973930     0.592211  Biso 1.000000     C
    C   1.0     0.889009     0.611430     0.889043  Biso 1.000000     C
    C   1.0     0.946346     0.553927     0.946371  Biso 1.000000     C
    C   1.0     0.972789     0.461373     0.972804  Biso 1.000000     C
    C   1.0     0.973916     0.592210     0.973925  Biso 1.000000     C
    C   1.0     0.111595     0.389099     0.389103  Biso 1.000000     C
    C   1.0     0.053963     0.446403     0.446404  Biso 1.000000     C
    C   1.0     0.389096     0.111580     0.389118  Biso 1.000000     C
    C   1.0     0.446394     0.053958     0.446409  Biso 1.000000     C
    C   1.0     0.389098     0.389117     0.111572  Biso 1.000000     C
    C   1.0     0.446394     0.446411     0.053957  Biso 1.000000     C
    C   1.0     0.610893     0.888417     0.610893  Biso 1.000000     C
    C   1.0     0.553596     0.946088     0.553602  Biso 1.000000     C
    C   1.0     0.888374     0.610919     0.610909  Biso 1.000000     C
    C   1.0     0.946054     0.553615     0.553607  Biso 1.000000     C
    C   1.0     0.610891     0.610902     0.888415  Biso 1.000000     C
    C   1.0     0.553595     0.553609     0.946085  Biso 1.000000     C
    O   1.0     0.133865     0.428563     0.305439  Biso 1.000000     O
    O   1.0     0.305430     0.133790     0.428591  Biso 1.000000     O
    O   1.0     0.428565     0.305456     0.133883  Biso 1.000000     O
    O   1.0     0.571425     0.866117     0.694558  Biso 1.000000     O
    O   1.0     0.866150     0.694580     0.571442  Biso 1.000000     O
    O   1.0     0.694555     0.571436     0.866220  Biso 1.000000     O
    O   1.0     0.866131     0.571455     0.694573  Biso 1.000000     O
    O   1.0     0.694559     0.866238     0.571420  Biso 1.000000     O
    O   1.0     0.571424     0.694563     0.866138  Biso 1.000000     O
    O   1.0     0.428564     0.133908     0.305453  Biso 1.000000     O
    O   1.0     0.133845     0.305439     0.428569  Biso 1.000000     O
    O   1.0     0.305433     0.428583     0.133800  Biso 1.000000     O
    O   1.0     0.249912     0.249923     0.249922  Biso 1.000000     O
    O   1.0     0.750077     0.750096     0.750089  Biso 1.000000     O
    O   1.0     0.132662     0.304894     0.132738  Biso 1.000000     O
    O   1.0     0.133477     0.428074     0.133407  Biso 1.000000     O
    O   1.0     0.132663     0.132748     0.304889  Biso 1.000000     O
    O   1.0     0.133471     0.133416     0.428076  Biso 1.000000     O
    O   1.0     0.304862     0.132724     0.132719  Biso 1.000000     O
    O   1.0     0.428048     0.133472     0.133444  Biso 1.000000     O
    O   1.0     0.695127     0.867299     0.867288  Biso 1.000000     O
    O   1.0     0.571942     0.866551     0.866562  Biso 1.000000     O
    O   1.0     0.867330     0.867266     0.695121  Biso 1.000000     O
    O   1.0     0.866522     0.866598     0.571935  Biso 1.000000     O
    O   1.0     0.867324     0.695124     0.867275  Biso 1.000000     O
    O   1.0     0.866511     0.571944     0.866604  Biso 1.000000     O
   Zn   1.0     0.206022     0.206087     0.206075  Biso 1.000000    Zn
   Zn   1.0     0.793967     0.793932     0.793936  Biso 1.000000    Zn
   Zn   1.0     0.206967     0.380197     0.206939  Biso 1.000000    Zn
   Zn   1.0     0.206966     0.206941     0.380204  Biso 1.000000    Zn
   Zn   1.0     0.380195     0.206979     0.206973  Biso 1.000000    Zn
   Zn   1.0     0.619794     0.793040     0.793038  Biso 1.000000    Zn
   Zn   1.0     0.793023     0.793077     0.619807  Biso 1.000000    Zn
   Zn   1.0     0.793021     0.619822     0.793072  Biso 1.000000    Zn
