#======================================================================

# CRYSTAL DATA

#----------------------------------------------------------------------

data_VESTA_phase_1


_pd_phase_name                         MOF
_cell_length_a                         16.50100
_cell_length_b                         19.54200
_cell_length_c                         19.54000
_cell_angle_alpha                      90.00000
_cell_angle_beta                       89.99400
_cell_angle_gamma                      90.03900
_symmetry_space_group_name_H-M         "P 1"
_symmetry_Int_Tables_number            1

loop_
_symmetry_equiv_pos_as_xyz
   "x, y, z"

loop_
   _atom_site_label
   _atom_site_occupancy
   _atom_site_fract_x
   _atom_site_fract_y
   _atom_site_fract_z
   _atom_site_adp_type
   _atom_site_B_iso_or_equiv
   _atom_site_type_symbol
    H   1.0     0.915563     0.764576     0.408153  Biso 1.000000     H
    H   1.0     0.678514     0.886722     0.213789  Biso 1.000000     H
    H   1.0     0.881512     0.012079     0.243714  Biso 1.000000     H
    H   1.0     0.676319     0.770882     0.357274  Biso 1.000000     H
    H   1.0     0.707565     0.001555     0.401260  Biso 1.000000     H
    H   1.0     0.915834     0.235452     0.591865  Biso 1.000000     H
    H   1.0     0.678399     0.113250     0.786149  Biso 1.000000     H
    H   1.0     0.881414     0.988067     0.756377  Biso 1.000000     H
    H   1.0     0.676507     0.229122     0.642747  Biso 1.000000     H
    H   1.0     0.707605     0.998352     0.598753  Biso 1.000000     H
    H   1.0     0.415649     0.091891     0.264528  Biso 1.000000     H
    H   1.0     0.178521     0.286133     0.386811  Biso 1.000000     H
    H   1.0     0.381563     0.256336     0.512006  Biso 1.000000     H
    H   1.0     0.176415     0.142697     0.270873  Biso 1.000000     H
    H   1.0     0.207592     0.098738     0.501612  Biso 1.000000     H
    H   1.0     0.415746     0.908211     0.735454  Biso 1.000000     H
    H   1.0     0.178396     0.713813     0.613313  Biso 1.000000     H
    H   1.0     0.381352     0.743697     0.488007  Biso 1.000000     H
    H   1.0     0.176382     0.857237     0.729114  Biso 1.000000     H
    H   1.0     0.207617     0.901277     0.498412  Biso 1.000000     H
    H   1.0     0.584400     0.735422     0.908168  Biso 1.000000     H
    H   1.0     0.821480     0.613279     0.713783  Biso 1.000000     H
    H   1.0     0.618508     0.487926     0.743735  Biso 1.000000     H
    H   1.0     0.823652     0.729120     0.857277  Biso 1.000000     H
    H   1.0     0.792431     0.498448     0.901268  Biso 1.000000     H
    H   1.0     0.584182     0.264544     0.091869  Biso 1.000000     H
    H   1.0     0.821559     0.386782     0.286146  Biso 1.000000     H
    H   1.0     0.618531     0.511930     0.256362  Biso 1.000000     H
    H   1.0     0.823474     0.270863     0.142725  Biso 1.000000     H
    H   1.0     0.792395     0.501643     0.098751  Biso 1.000000     H
    H   1.0     0.084381     0.408107     0.764542  Biso 1.000000     H
    H   1.0     0.321458     0.213857     0.886814  Biso 1.000000     H
    H   1.0     0.118416     0.243683     0.012019  Biso 1.000000     H
    H   1.0     0.323595     0.357308     0.770873  Biso 1.000000     H
    H   1.0     0.292412     0.401260     0.001586  Biso 1.000000     H
    H   1.0     0.084198     0.591803     0.235456  Biso 1.000000     H
    H   1.0     0.321599     0.786171     0.113293  Biso 1.000000     H
    H   1.0     0.118642     0.756314     0.988039  Biso 1.000000     H
    H   1.0     0.323563     0.642754     0.229114  Biso 1.000000     H
    H   1.0     0.292352     0.598714     0.998410  Biso 1.000000     H
    H   1.0     0.084425     0.235418     0.591860  Biso 1.000000     H
    H   1.0     0.321474     0.113276     0.786234  Biso 1.000000     H
    H   1.0     0.118464     0.987918     0.756297  Biso 1.000000     H
    H   1.0     0.323658     0.229127     0.642746  Biso 1.000000     H
    H   1.0     0.292431     0.998445     0.598767  Biso 1.000000     H
    H   1.0     0.084155     0.764542     0.408147  Biso 1.000000     H
    H   1.0     0.321576     0.886761     0.213862  Biso 1.000000     H
    H   1.0     0.118571     0.011932     0.243648  Biso 1.000000     H
    H   1.0     0.323477     0.770873     0.357275  Biso 1.000000     H
    H   1.0     0.292386     0.001647     0.401268  Biso 1.000000     H
    H   1.0     0.584340     0.908120     0.735487  Biso 1.000000     H
    H   1.0     0.821456     0.713857     0.613201  Biso 1.000000     H
    H   1.0     0.618414     0.743673     0.488014  Biso 1.000000     H
    H   1.0     0.823571     0.857303     0.729153  Biso 1.000000     H
    H   1.0     0.792404     0.901256     0.498411  Biso 1.000000     H
    H   1.0     0.584242     0.091800     0.264561  Biso 1.000000     H
    H   1.0     0.821588     0.286191     0.386713  Biso 1.000000     H
    H   1.0     0.618632     0.256297     0.512016  Biso 1.000000     H
    H   1.0     0.823594     0.142760     0.270896  Biso 1.000000     H
    H   1.0     0.792374     0.098722     0.501610  Biso 1.000000     H
    H   1.0     0.415589     0.264585     0.091840  Biso 1.000000     H
    H   1.0     0.178498     0.386712     0.286230  Biso 1.000000     H
    H   1.0     0.381478     0.512073     0.256291  Biso 1.000000     H
    H   1.0     0.176328     0.270887     0.142747  Biso 1.000000     H
    H   1.0     0.207560     0.501552     0.098753  Biso 1.000000     H
    H   1.0     0.415806     0.735464     0.908138  Biso 1.000000     H
    H   1.0     0.178424     0.613222     0.713881  Biso 1.000000     H
    H   1.0     0.381444     0.488073     0.743647  Biso 1.000000     H
    H   1.0     0.176508     0.729129     0.857296  Biso 1.000000     H
    H   1.0     0.207603     0.498355     0.901278  Biso 1.000000     H
    H   1.0     0.915607     0.591887     0.235477  Biso 1.000000     H
    H   1.0     0.678530     0.786141     0.113209  Biso 1.000000     H
    H   1.0     0.881564     0.756325     0.988004  Biso 1.000000     H
    H   1.0     0.676379     0.642694     0.229136  Biso 1.000000     H
    H   1.0     0.707582     0.598737     0.998435  Biso 1.000000     H
    H   1.0     0.915791     0.408191     0.764562  Biso 1.000000     H
    H   1.0     0.678376     0.213840     0.886717  Biso 1.000000     H
    H   1.0     0.881339     0.243679     0.011982  Biso 1.000000     H
    H   1.0     0.676423     0.357245     0.770911  Biso 1.000000     H
    H   1.0     0.707642     0.401289     0.001613  Biso 1.000000     H
    H   1.0     0.000067     0.942948     0.310273  Biso 1.000000     H
    H   1.0    -0.000080     0.057055     0.689756  Biso 1.000000     H
    H   1.0     0.500027     0.189740     0.442937  Biso 1.000000     H
    H   1.0     0.499962     0.810253     0.557089  Biso 1.000000     H
    H   1.0     0.499928     0.557047     0.810288  Biso 1.000000     H
    H   1.0     0.500061     0.442947     0.189743  Biso 1.000000     H
    H   1.0    -0.000056     0.310267     0.942951  Biso 1.000000     H
    H   1.0     0.000043     0.689734     0.057071  Biso 1.000000     H
    H   1.0     0.877516     0.755219     0.244852  Biso 1.000000     H
    H   1.0     0.877579     0.244841     0.755235  Biso 1.000000     H
    H   1.0     0.377526     0.255233     0.255148  Biso 1.000000     H
    H   1.0     0.377561     0.744852     0.744790  Biso 1.000000     H
    H   1.0     0.622467     0.744771     0.744879  Biso 1.000000     H
    H   1.0     0.622430     0.255144     0.255230  Biso 1.000000     H
    H   1.0     0.122473     0.244780     0.755170  Biso 1.000000     H
    H   1.0     0.122416     0.755151     0.244794  Biso 1.000000     H
    C   1.0     0.958216     0.801249     0.387154  Biso 1.000000     C
    C   1.0     0.719552     0.844180     0.205571  Biso 1.000000     C
    C   1.0     0.837275     0.029295     0.280969  Biso 1.000000     C
    C   1.0     0.691507     0.794101     0.406028  Biso 1.000000     C
    C   1.0     0.747623     0.022434     0.362454  Biso 1.000000     C
    C   1.0     0.958402     0.198764     0.612868  Biso 1.000000     C
    C   1.0     0.719469     0.155810     0.794395  Biso 1.000000     C
    C   1.0     0.837221     0.970789     0.719098  Biso 1.000000     C
    C   1.0     0.691654     0.205892     0.593995  Biso 1.000000     C
    C   1.0     0.747639     0.977528     0.637574  Biso 1.000000     C
    C   1.0     0.458278     0.112871     0.301219  Biso 1.000000     C
    C   1.0     0.219554     0.294384     0.344237  Biso 1.000000     C
    C   1.0     0.337323     0.219067     0.529258  Biso 1.000000     C
    C   1.0     0.191587     0.093957     0.294094  Biso 1.000000     C
    C   1.0     0.247658     0.137554     0.522464  Biso 1.000000     C
    C   1.0     0.458338     0.887181     0.698782  Biso 1.000000     C
    C   1.0     0.219470     0.705589     0.655848  Biso 1.000000     C
    C   1.0     0.337168     0.780960     0.470758  Biso 1.000000     C
    C   1.0     0.191561     0.905996     0.705898  Biso 1.000000     C
    C   1.0     0.247627     0.862462     0.477559  Biso 1.000000     C
    C   1.0     0.541755     0.698749     0.887165  Biso 1.000000     C
    C   1.0     0.780439     0.655819     0.705573  Biso 1.000000     C
    C   1.0     0.662739     0.470710     0.780987  Biso 1.000000     C
    C   1.0     0.808468     0.705899     0.906033  Biso 1.000000     C
    C   1.0     0.752379     0.477569     0.862466  Biso 1.000000     C
    C   1.0     0.541607     0.301234     0.112865  Biso 1.000000     C
    C   1.0     0.780501     0.344212     0.294392  Biso 1.000000     C
    C   1.0     0.662737     0.529208     0.219086  Biso 1.000000     C
    C   1.0     0.808333     0.294096     0.093976  Biso 1.000000     C
    C   1.0     0.752346     0.522467     0.137568  Biso 1.000000     C
    C   1.0     0.041741     0.387128     0.801231  Biso 1.000000     C
    C   1.0     0.280428     0.205610     0.844244  Biso 1.000000     C
    C   1.0     0.162662     0.280947     0.029261  Biso 1.000000     C
    C   1.0     0.308420     0.406047     0.794096  Biso 1.000000     C
    C   1.0     0.252341     0.362448     0.022447  Biso 1.000000     C
    C   1.0     0.041619     0.612827     0.198779  Biso 1.000000     C
    C   1.0     0.280522     0.794398     0.155833  Biso 1.000000     C
    C   1.0     0.162819     0.719046     0.970781  Biso 1.000000     C
    C   1.0     0.308393     0.593996     0.205894  Biso 1.000000     C
    C   1.0     0.252348     0.637533     0.977566  Biso 1.000000     C
    C   1.0     0.041773     0.198746     0.612862  Biso 1.000000     C
    C   1.0     0.280436     0.155818     0.794451  Biso 1.000000     C
    C   1.0     0.162705     0.970703     0.719045  Biso 1.000000     C
    C   1.0     0.308475     0.205905     0.593993  Biso 1.000000     C
    C   1.0     0.252368     0.977565     0.637568  Biso 1.000000     C
    C   1.0     0.041587     0.801232     0.387148  Biso 1.000000     C
    C   1.0     0.280511     0.844196     0.205619  Biso 1.000000     C
    C   1.0     0.162766     0.029211     0.280926  Biso 1.000000     C
    C   1.0     0.308332     0.794103     0.406028  Biso 1.000000     C
    C   1.0     0.252351     0.022470     0.362448  Biso 1.000000     C
    C   1.0     0.541711     0.887137     0.698798  Biso 1.000000     C
    C   1.0     0.780427     0.705609     0.655779  Biso 1.000000     C
    C   1.0     0.662658     0.780939     0.470762  Biso 1.000000     C
    C   1.0     0.808400     0.906042     0.705931  Biso 1.000000     C
    C   1.0     0.752333     0.862443     0.477559  Biso 1.000000     C
    C   1.0     0.541651     0.112827     0.301235  Biso 1.000000     C
    C   1.0     0.780515     0.294413     0.344177  Biso 1.000000     C
    C   1.0     0.662818     0.219035     0.529264  Biso 1.000000     C
    C   1.0     0.808419     0.094001     0.294116  Biso 1.000000     C
    C   1.0     0.752363     0.137536     0.522463  Biso 1.000000     C
    C   1.0     0.458234     0.301256     0.112847  Biso 1.000000     C
    C   1.0     0.219543     0.344175     0.294443  Biso 1.000000     C
    C   1.0     0.337248     0.529289     0.219037  Biso 1.000000     C
    C   1.0     0.191515     0.294106     0.093990  Biso 1.000000     C
    C   1.0     0.247611     0.522430     0.137557  Biso 1.000000     C
    C   1.0     0.458382     0.698770     0.887147  Biso 1.000000     C
    C   1.0     0.219484     0.655791     0.705633  Biso 1.000000     C
    C   1.0     0.337242     0.470793     0.780927  Biso 1.000000     C
    C   1.0     0.191651     0.705898     0.906045  Biso 1.000000     C
    C   1.0     0.247645     0.477532     0.862455  Biso 1.000000     C
    C   1.0     0.958248     0.612867     0.198789  Biso 1.000000     C
    C   1.0     0.719560     0.794388     0.155779  Biso 1.000000     C
    C   1.0     0.837320     0.719059     0.970762  Biso 1.000000     C
    C   1.0     0.691560     0.593954     0.205917  Biso 1.000000     C
    C   1.0     0.747649     0.637552     0.977575  Biso 1.000000     C
    C   1.0     0.958370     0.387168     0.801241  Biso 1.000000     C
    C   1.0     0.719458     0.205608     0.844181  Biso 1.000000     C
    C   1.0     0.837165     0.280949     0.029240  Biso 1.000000     C
    C   1.0     0.691594     0.406003     0.794131  Biso 1.000000     C
    C   1.0     0.747643     0.362467     0.022457  Biso 1.000000     C
    C   1.0     0.000008     0.893844     0.336162  Biso 1.000000     C
    C   1.0    -0.000021     0.106156     0.663863  Biso 1.000000     C
    C   1.0     0.500007     0.163846     0.393832  Biso 1.000000     C
    C   1.0     0.499982     0.836152     0.606191  Biso 1.000000     C
    C   1.0     0.499977     0.606153     0.836174  Biso 1.000000     C
    C   1.0     0.500012     0.393845     0.163851  Biso 1.000000     C
    C   1.0    -0.000019     0.336157     0.893845  Biso 1.000000     C
    C   1.0     0.000006     0.663842     0.106177  Biso 1.000000     C
    C   1.0     0.822985     0.777145     0.222887  Biso 1.000000     C
    C   1.0     0.822995     0.222893     0.777156  Biso 1.000000     C
    C   1.0     0.322990     0.277153     0.277119  Biso 1.000000     C
    C   1.0     0.322987     0.722893     0.722871  Biso 1.000000     C
    C   1.0     0.677000     0.722848     0.722905  Biso 1.000000     C
    C   1.0     0.677002     0.277105     0.277151  Biso 1.000000     C
    C   1.0     0.177003     0.222854     0.777136  Biso 1.000000     C
    C   1.0     0.176996     0.777104     0.222868  Biso 1.000000     C
    N   1.0     0.932050     0.860249     0.354710  Biso 1.000000     N
    N   1.0     0.785377     0.833007     0.248070  Biso 1.000000     N
    N   1.0     0.798574     0.983953     0.324576  Biso 1.000000     N
    N   1.0     0.748474     0.845925     0.410607  Biso 1.000000     N
    N   1.0     0.932097     0.139781     0.645321  Biso 1.000000     N
    N   1.0     0.785365     0.167011     0.751951  Biso 1.000000     N
    N   1.0     0.798561     0.016078     0.675477  Biso 1.000000     N
    N   1.0     0.748539     0.154070     0.589412  Biso 1.000000     N
    N   1.0     0.432069     0.145336     0.360207  Biso 1.000000     N
    N   1.0     0.285393     0.251940     0.333011  Biso 1.000000     N
    N   1.0     0.298618     0.175450     0.483948  Biso 1.000000     N
    N   1.0     0.248497     0.089413     0.345929  Biso 1.000000     N
    N   1.0     0.432075     0.854736     0.639786  Biso 1.000000     N
    N   1.0     0.285344     0.748083     0.667017  Biso 1.000000     N
    N   1.0     0.298535     0.824581     0.516072  Biso 1.000000     N
    N   1.0     0.248521     0.910617     0.654091  Biso 1.000000     N
    N   1.0     0.567932     0.639746     0.854729  Biso 1.000000     N
    N   1.0     0.714613     0.666988     0.748082  Biso 1.000000     N
    N   1.0     0.701423     0.516046     0.824592  Biso 1.000000     N
    N   1.0     0.751504     0.654073     0.910623  Biso 1.000000     N
    N   1.0     0.567901     0.360217     0.145320  Biso 1.000000     N
    N   1.0     0.714620     0.332996     0.251946  Biso 1.000000     N
    N   1.0     0.701423     0.483924     0.175470  Biso 1.000000     N
    N   1.0     0.751463     0.345930     0.089405  Biso 1.000000     N
    N   1.0     0.067930     0.354668     0.860224  Biso 1.000000     N
    N   1.0     0.214598     0.248062     0.833024  Biso 1.000000     N
    N   1.0     0.201372     0.324561     0.983965  Biso 1.000000     N
    N   1.0     0.251501     0.410590     0.845936  Biso 1.000000     N
    N   1.0     0.067902     0.645264     0.139781  Biso 1.000000     N
    N   1.0     0.214640     0.751911     0.167010  Biso 1.000000     N
    N   1.0     0.201449     0.675416     0.016065  Biso 1.000000     N
    N   1.0     0.251450     0.589378     0.154083  Biso 1.000000     N
    N   1.0     0.067939     0.139750     0.645311  Biso 1.000000     N
    N   1.0     0.214611     0.166991     0.751953  Biso 1.000000     N
    N   1.0     0.201413     0.016046     0.675443  Biso 1.000000     N
    N   1.0     0.251514     0.154076     0.589415  Biso 1.000000     N
    N   1.0     0.067892     0.860218     0.354700  Biso 1.000000     N
    N   1.0     0.214622     0.832990     0.248070  Biso 1.000000     N
    N   1.0     0.201428     0.983921     0.324546  Biso 1.000000     N
    N   1.0     0.251449     0.845927     0.410610  Biso 1.000000     N
    N   1.0     0.567920     0.854665     0.639813  Biso 1.000000     N
    N   1.0     0.714593     0.748058     0.667010  Biso 1.000000     N
    N   1.0     0.701370     0.824550     0.516073  Biso 1.000000     N
    N   1.0     0.751492     0.910586     0.654094  Biso 1.000000     N
    N   1.0     0.567914     0.145265     0.360235  Biso 1.000000     N
    N   1.0     0.714644     0.251917     0.333006  Biso 1.000000     N
    N   1.0     0.701453     0.175416     0.483950  Biso 1.000000     N
    N   1.0     0.751466     0.089382     0.345929  Biso 1.000000     N
    N   1.0     0.432057     0.360254     0.145291  Biso 1.000000     N
    N   1.0     0.285374     0.333010     0.251939  Biso 1.000000     N
    N   1.0     0.298565     0.483953     0.175431  Biso 1.000000     N
    N   1.0     0.248484     0.345928     0.089399  Biso 1.000000     N
    N   1.0     0.432088     0.639783     0.854700  Biso 1.000000     N
    N   1.0     0.285367     0.667004     0.748077  Biso 1.000000     N
    N   1.0     0.298564     0.516076     0.824550  Biso 1.000000     N
    N   1.0     0.248526     0.654068     0.910617  Biso 1.000000     N
    N   1.0     0.932059     0.645329     0.139797  Biso 1.000000     N
    N   1.0     0.785391     0.751936     0.166999  Biso 1.000000     N
    N   1.0     0.798616     0.675441     0.016057  Biso 1.000000     N
    N   1.0     0.748486     0.589409     0.154084  Biso 1.000000     N
    N   1.0     0.932087     0.354733     0.860240  Biso 1.000000     N
    N   1.0     0.785346     0.248089     0.833011  Biso 1.000000     N
    N   1.0     0.798539     0.324582     0.983957  Biso 1.000000     N
    N   1.0     0.748539     0.410622     0.845940  Biso 1.000000     N
   Zn   1.0     0.816126     0.883241     0.333584  Biso 1.000000    Zn
   Zn   1.0     0.816132     0.116792     0.666444  Biso 1.000000    Zn
   Zn   1.0     0.316141     0.166446     0.383225  Biso 1.000000    Zn
   Zn   1.0     0.316117     0.833603     0.616792  Biso 1.000000    Zn
   Zn   1.0     0.683863     0.616756     0.833602  Biso 1.000000    Zn
   Zn   1.0     0.683862     0.383209     0.166439  Biso 1.000000    Zn
   Zn   1.0     0.183852     0.333558     0.883241  Biso 1.000000    Zn
   Zn   1.0     0.183866     0.666393     0.116786  Biso 1.000000    Zn
   Zn   1.0     0.183864     0.116758     0.666439  Biso 1.000000    Zn
   Zn   1.0     0.183858     0.883207     0.333578  Biso 1.000000    Zn
   Zn   1.0     0.683848     0.833553     0.616798  Biso 1.000000    Zn
   Zn   1.0     0.683873     0.166395     0.383230  Biso 1.000000    Zn
   Zn   1.0     0.316127     0.383243     0.166420  Biso 1.000000    Zn
   Zn   1.0     0.316127     0.616790     0.833583  Biso 1.000000    Zn
   Zn   1.0     0.816137     0.666442     0.116781  Biso 1.000000    Zn
   Zn   1.0     0.816124     0.333606     0.883236  Biso 1.000000    Zn
