#======================================================================

# CRYSTAL DATA

#----------------------------------------------------------------------

data_VESTA_phase_1


_pd_phase_name                         MOF
_cell_length_a                         16.38800
_cell_length_b                         16.38300
_cell_length_c                         27.75200
_cell_angle_alpha                      85.47900
_cell_angle_beta                       85.44800
_cell_angle_gamma                      72.20000
_symmetry_space_group_name_H-M         "P 1"
_symmetry_Int_Tables_number            1

loop_
_symmetry_equiv_pos_as_xyz
   "x, y, z"

loop_
   _atom_site_label
   _atom_site_occupancy
   _atom_site_fract_x
   _atom_site_fract_y
   _atom_site_fract_z
   _atom_site_adp_type
   _atom_site_B_iso_or_equiv
   _atom_site_type_symbol
    H   1.0     0.332836     0.674535     0.089434  Biso 1.000000     H
    H   1.0     0.334301     0.610883     0.010687  Biso 1.000000     H
    H   1.0     0.385677     0.832206     0.935555  Biso 1.000000     H
    H   1.0     0.380897     0.896391     0.015336  Biso 1.000000     H
    H   1.0     0.263731     0.633439     0.939285  Biso 1.000000     H
    H   1.0     0.367964     0.561179     0.923792  Biso 1.000000     H
    H   1.0     0.368374     0.641846     0.791461  Biso 1.000000     H
    H   1.0     0.413843     0.675647     0.840282  Biso 1.000000     H
    H   1.0     0.511329     0.648157     0.779563  Biso 1.000000     H
    H   1.0     0.654847     0.602769     0.742531  Biso 1.000000     H
    H   1.0     0.691022     0.344057     0.805601  Biso 1.000000     H
    H   1.0     0.544889     0.391365     0.844452  Biso 1.000000     H
    H   1.0     0.261892     0.776044     0.859779  Biso 1.000000     H
    H   1.0     0.219601     0.731168     0.813714  Biso 1.000000     H
    H   1.0     0.123269     0.860387     0.813398  Biso 1.000000     H
    H   1.0     0.974003     0.948726     0.797328  Biso 1.000000     H
    H   1.0     0.876948     0.804669     0.912456  Biso 1.000000     H
    H   1.0     0.024758     0.716641     0.928068  Biso 1.000000     H
    H   1.0     0.308513     0.501632     0.856958  Biso 1.000000     H
    H   1.0     0.202860     0.570582     0.873034  Biso 1.000000     H
    H   1.0     0.181719     0.619699     0.717748  Biso 1.000000     H
    H   1.0     0.089580     0.547516     0.679613  Biso 1.000000     H
    H   1.0     0.104873     0.373899     0.804420  Biso 1.000000     H
    H   1.0     0.196846     0.443572     0.843055  Biso 1.000000     H
    H   1.0     0.766679     0.552793     0.722407  Biso 1.000000     H
    H   1.0     0.779961     0.848330     0.871514  Biso 1.000000     H
    H   1.0     0.325324     0.667213     0.410539  Biso 1.000000     H
    H   1.0     0.389014     0.665707     0.489252  Biso 1.000000     H
    H   1.0     0.167698     0.614465     0.564456  Biso 1.000000     H
    H   1.0     0.103486     0.619285     0.484725  Biso 1.000000     H
    H   1.0     0.366665     0.736155     0.560662  Biso 1.000000     H
    H   1.0     0.438798     0.631847     0.576109  Biso 1.000000     H
    H   1.0     0.358100     0.631625     0.708472  Biso 1.000000     H
    H   1.0     0.324439     0.586046     0.659644  Biso 1.000000     H
    H   1.0     0.351851     0.488633     0.720386  Biso 1.000000     H
    H   1.0     0.397214     0.345129     0.757427  Biso 1.000000     H
    H   1.0     0.655933     0.308945     0.694384  Biso 1.000000     H
    H   1.0     0.608657     0.455061     0.655527  Biso 1.000000     H
    H   1.0     0.224049     0.738099     0.640192  Biso 1.000000     H
    H   1.0     0.268909     0.780405     0.686256  Biso 1.000000     H
    H   1.0     0.139683     0.876708     0.686553  Biso 1.000000     H
    H   1.0     0.051280     0.025951     0.702638  Biso 1.000000     H
    H   1.0     0.195408     0.123011     0.587545  Biso 1.000000     H
    H   1.0     0.283511     0.975221     0.571923  Biso 1.000000     H
    H   1.0     0.498392     0.691408     0.642949  Biso 1.000000     H
    H   1.0     0.429474     0.797077     0.626898  Biso 1.000000     H
    H   1.0     0.380282     0.818321     0.782202  Biso 1.000000     H
    H   1.0     0.452455     0.910467     0.820350  Biso 1.000000     H
    H   1.0     0.626102     0.895080     0.695513  Biso 1.000000     H
    H   1.0     0.556441     0.803100     0.656862  Biso 1.000000     H
    H   1.0     0.447194     0.233321     0.777591  Biso 1.000000     H
    H   1.0     0.151727     0.220024     0.628543  Biso 1.000000     H
    H   1.0     0.667153     0.325508     0.910543  Biso 1.000000     H
    H   1.0     0.665682     0.389157     0.989291  Biso 1.000000     H
    H   1.0     0.614280     0.167842     0.064418  Biso 1.000000     H
    H   1.0     0.619067     0.103659     0.984635  Biso 1.000000     H
    H   1.0     0.736234     0.366604     0.060692  Biso 1.000000     H
    H   1.0     0.631999     0.438860     0.076184  Biso 1.000000     H
    H   1.0     0.631593     0.358199     0.208516  Biso 1.000000     H
    H   1.0     0.586117     0.324404     0.159695  Biso 1.000000     H
    H   1.0     0.488637     0.351898     0.220416  Biso 1.000000     H
    H   1.0     0.345119     0.397291     0.257448  Biso 1.000000     H
    H   1.0     0.308945     0.655996     0.194367  Biso 1.000000     H
    H   1.0     0.455080     0.608685     0.155519  Biso 1.000000     H
    H   1.0     0.738074     0.223997     0.140201  Biso 1.000000     H
    H   1.0     0.780366     0.268877     0.186263  Biso 1.000000     H
    H   1.0     0.876703     0.139656     0.186578  Biso 1.000000     H
    H   1.0     0.025973     0.051324     0.202645  Biso 1.000000     H
    H   1.0     0.123012     0.195379     0.087509  Biso 1.000000     H
    H   1.0     0.975199     0.283398     0.071900  Biso 1.000000     H
    H   1.0     0.691454     0.498410     0.143017  Biso 1.000000     H
    H   1.0     0.797106     0.429457     0.126940  Biso 1.000000     H
    H   1.0     0.818250     0.380344     0.282224  Biso 1.000000     H
    H   1.0     0.910393     0.452529     0.320355  Biso 1.000000     H
    H   1.0     0.895099     0.626136     0.195544  Biso 1.000000     H
    H   1.0     0.803123     0.556462     0.156913  Biso 1.000000     H
    H   1.0     0.233275     0.447256     0.277549  Biso 1.000000     H
    H   1.0     0.220016     0.151696     0.128433  Biso 1.000000     H
    H   1.0     0.674521     0.332868     0.589441  Biso 1.000000     H
    H   1.0     0.610877     0.334373     0.510716  Biso 1.000000     H
    H   1.0     0.832189     0.385688     0.435553  Biso 1.000000     H
    H   1.0     0.896360     0.380868     0.515296  Biso 1.000000     H
    H   1.0     0.633293     0.263895     0.439303  Biso 1.000000     H
    H   1.0     0.561159     0.368200     0.423849  Biso 1.000000     H
    H   1.0     0.641873     0.368449     0.291497  Biso 1.000000     H
    H   1.0     0.675535     0.414020     0.340328  Biso 1.000000     H
    H   1.0     0.648114     0.511446     0.279592  Biso 1.000000     H
    H   1.0     0.602737     0.654948     0.242552  Biso 1.000000     H
    H   1.0     0.344016     0.691098     0.305582  Biso 1.000000     H
    H   1.0     0.391307     0.544982     0.344442  Biso 1.000000     H
    H   1.0     0.775939     0.262009     0.359759  Biso 1.000000     H
    H   1.0     0.731088     0.219650     0.313714  Biso 1.000000     H
    H   1.0     0.860326     0.123343     0.313407  Biso 1.000000     H
    H   1.0     0.948697     0.974091     0.297320  Biso 1.000000     H
    H   1.0     0.804585     0.877070     0.412438  Biso 1.000000     H
    H   1.0     0.716516     0.024873     0.428064  Biso 1.000000     H
    H   1.0     0.501605     0.308625     0.357015  Biso 1.000000     H
    H   1.0     0.570538     0.202963     0.373065  Biso 1.000000     H
    H   1.0     0.619698     0.181730     0.217757  Biso 1.000000     H
    H   1.0     0.547509     0.089595     0.179613  Biso 1.000000     H
    H   1.0     0.373877     0.104988     0.304458  Biso 1.000000     H
    H   1.0     0.443559     0.196952     0.343105  Biso 1.000000     H
    H   1.0     0.552745     0.766736     0.222370  Biso 1.000000     H
    H   1.0     0.848201     0.780054     0.371408  Biso 1.000000     H
    C   1.0     0.352469     0.829605     0.104361  Biso 1.000000     C
    C   1.0     0.356258     0.789534     0.057300  Biso 1.000000     C
    C   1.0     0.343897     0.709011     0.055568  Biso 1.000000     C
    C   1.0     0.344483     0.673436     0.011329  Biso 1.000000     C
    C   1.0     0.358923     0.718885     0.968290  Biso 1.000000     C
    C   1.0     0.373713     0.798554     0.969575  Biso 1.000000     C
    C   1.0     0.371462     0.833712     0.013709  Biso 1.000000     C
    C   1.0     0.322622     0.625149     0.915744  Biso 1.000000     C
    C   1.0     0.301040     0.635702     0.862123  Biso 1.000000     C
    C   1.0     0.382986     0.629295     0.829879  Biso 1.000000     C
    C   1.0     0.518671     0.522798     0.814984  Biso 1.000000     C
    C   1.0     0.550145     0.581891     0.786024  Biso 1.000000     C
    C   1.0     0.633096     0.554751     0.765015  Biso 1.000000     C
    C   1.0     0.685136     0.469546     0.771812  Biso 1.000000     C
    C   1.0     0.652064     0.410865     0.800667  Biso 1.000000     C
    C   1.0     0.569971     0.437186     0.822261  Biso 1.000000     C
    C   1.0     0.771558     0.437655     0.748310  Biso 1.000000     C
    C   1.0     0.235940     0.724414     0.851771  Biso 1.000000     C
    C   1.0     0.082882     0.780990     0.871070  Biso 1.000000     C
    C   1.0     0.069349     0.846988     0.834365  Biso 1.000000     C
    C   1.0     0.985839     0.896703     0.825353  Biso 1.000000     C
    C   1.0     0.915046     0.881344     0.851999  Biso 1.000000     C
    C   1.0     0.929910     0.816150     0.889349  Biso 1.000000     C
    C   1.0     0.012620     0.766798     0.899017  Biso 1.000000     C
    C   1.0     0.827799     0.934925     0.840341  Biso 1.000000     C
    C   1.0     0.262365     0.565631     0.850503  Biso 1.000000     C
    C   1.0     0.194706     0.536245     0.782449  Biso 1.000000     C
    C   1.0     0.165289     0.565027     0.736145  Biso 1.000000     C
    C   1.0     0.114277     0.525369     0.715187  Biso 1.000000     C
    C   1.0     0.091889     0.456392     0.739825  Biso 1.000000     C
    C   1.0     0.122651     0.427502     0.785662  Biso 1.000000     C
    C   1.0     0.173988     0.466764     0.807241  Biso 1.000000     C
    C   1.0     0.033843     0.416511     0.717751  Biso 1.000000     C
    C   1.0     0.170331     0.647574     0.395655  Biso 1.000000     C
    C   1.0     0.210350     0.643831     0.442713  Biso 1.000000     C
    C   1.0     0.290864     0.656168     0.444418  Biso 1.000000     C
    C   1.0     0.326461     0.655556     0.488638  Biso 1.000000     C
    C   1.0     0.281031     0.641119     0.531676  Biso 1.000000     C
    C   1.0     0.201342     0.626405     0.530424  Biso 1.000000     C
    C   1.0     0.166171     0.628681     0.486320  Biso 1.000000     C
    C   1.0     0.374881     0.677268     0.584190  Biso 1.000000     C
    C   1.0     0.364354     0.698886     0.637817  Biso 1.000000     C
    C   1.0     0.370737     0.616951     0.670056  Biso 1.000000     C
    C   1.0     0.477217     0.481279     0.684977  Biso 1.000000     C
    C   1.0     0.418115     0.449816     0.713935  Biso 1.000000     C
    C   1.0     0.445244     0.366874     0.734951  Biso 1.000000     C
    C   1.0     0.530444     0.314830     0.728164  Biso 1.000000     C
    C   1.0     0.589132     0.347902     0.699315  Biso 1.000000     C
    C   1.0     0.562827     0.429984     0.677714  Biso 1.000000     C
    C   1.0     0.562326     0.228411     0.751663  Biso 1.000000     C
    C   1.0     0.275680     0.764033     0.648197  Biso 1.000000     C
    C   1.0     0.219127     0.917098     0.628907  Biso 1.000000     C
    C   1.0     0.153080     0.930641     0.665599  Biso 1.000000     C
    C   1.0     0.103331     0.014112     0.674618  Biso 1.000000     C
    C   1.0     0.118701     0.084913     0.647986  Biso 1.000000     C
    C   1.0     0.183932     0.070038     0.610640  Biso 1.000000     C
    C   1.0     0.233321     0.987366     0.600969  Biso 1.000000     C
    C   1.0     0.065065     0.172179     0.659639  Biso 1.000000     C
    C   1.0     0.434408     0.737574     0.649422  Biso 1.000000     C
    C   1.0     0.463753     0.805286     0.717484  Biso 1.000000     C
    C   1.0     0.434959     0.834730     0.763801  Biso 1.000000     C
    C   1.0     0.474617     0.885741     0.784768  Biso 1.000000     C
    C   1.0     0.543590     0.908119     0.760122  Biso 1.000000     C
    C   1.0     0.572500     0.877314     0.714276  Biso 1.000000     C
    C   1.0     0.533240     0.825979     0.692686  Biso 1.000000     C
    C   1.0     0.583482     0.966160     0.782203  Biso 1.000000     C
    C   1.0     0.647508     0.170437     0.895615  Biso 1.000000     C
    C   1.0     0.643718     0.210512     0.942675  Biso 1.000000     C
    C   1.0     0.656083     0.291033     0.944408  Biso 1.000000     C
    C   1.0     0.655495     0.326606     0.988648  Biso 1.000000     C
    C   1.0     0.641047     0.281158     0.031685  Biso 1.000000     C
    C   1.0     0.626252     0.201491     0.030400  Biso 1.000000     C
    C   1.0     0.628504     0.166337     0.986264  Biso 1.000000     C
    C   1.0     0.677343     0.374892     0.084233  Biso 1.000000     C
    C   1.0     0.698924     0.364340     0.137853  Biso 1.000000     C
    C   1.0     0.616979     0.370752     0.170098  Biso 1.000000     C
    C   1.0     0.481296     0.477253     0.184990  Biso 1.000000     C
    C   1.0     0.449821     0.418163     0.213953  Biso 1.000000     C
    C   1.0     0.366871     0.445306     0.234962  Biso 1.000000     C
    C   1.0     0.314829     0.530510     0.228160  Biso 1.000000     C
    C   1.0     0.347905     0.589189     0.199306  Biso 1.000000     C
    C   1.0     0.429997     0.562865     0.177711  Biso 1.000000     C
    C   1.0     0.228406     0.562400     0.251661  Biso 1.000000     C
    C   1.0     0.764025     0.275629     0.148207  Biso 1.000000     C
    C   1.0     0.917082     0.219053     0.128903  Biso 1.000000     C
    C   1.0     0.930620     0.153055     0.165607  Biso 1.000000     C
    C   1.0     0.014132     0.103342     0.174618  Biso 1.000000     C
    C   1.0     0.084922     0.118703     0.147970  Biso 1.000000     C
    C   1.0     0.070054     0.183892     0.110617  Biso 1.000000     C
    C   1.0     0.987342     0.233242     0.100951  Biso 1.000000     C
    C   1.0     0.172168     0.065129     0.159636  Biso 1.000000     C
    C   1.0     0.737601     0.434410     0.149471  Biso 1.000000     C
    C   1.0     0.805262     0.463794     0.217523  Biso 1.000000     C
    C   1.0     0.834680     0.435015     0.263826  Biso 1.000000     C
    C   1.0     0.885695     0.474672     0.284781  Biso 1.000000     C
    C   1.0     0.908083     0.543647     0.260141  Biso 1.000000     C
    C   1.0     0.877321     0.572534     0.214304  Biso 1.000000     C
    C   1.0     0.825982     0.533272     0.192727  Biso 1.000000     C
    C   1.0     0.966127     0.583530     0.282213  Biso 1.000000     C
    C   1.0     0.829547     0.352493     0.604343  Biso 1.000000     C
    C   1.0     0.789506     0.356272     0.557288  Biso 1.000000     C
    C   1.0     0.709001     0.343917     0.555570  Biso 1.000000     C
    C   1.0     0.673423     0.344535     0.511342  Biso 1.000000     C
    C   1.0     0.718869     0.358979     0.468312  Biso 1.000000     C
    C   1.0     0.798539     0.373728     0.469578  Biso 1.000000     C
    C   1.0     0.833691     0.371444     0.513687  Biso 1.000000     C
    C   1.0     0.625083     0.322784     0.415777  Biso 1.000000     C
    C   1.0     0.635634     0.301170     0.362149  Biso 1.000000     C
    C   1.0     0.629239     0.383114     0.329914  Biso 1.000000     C
    C   1.0     0.522746     0.518778     0.314994  Biso 1.000000     C
    C   1.0     0.581846     0.550253     0.286041  Biso 1.000000     C
    C   1.0     0.554710     0.633196     0.265027  Biso 1.000000     C
    C   1.0     0.469504     0.685228     0.271807  Biso 1.000000     C
    C   1.0     0.410822     0.652151     0.300657  Biso 1.000000     C
    C   1.0     0.437133     0.570067     0.322257  Biso 1.000000     C
    C   1.0     0.437616     0.771644     0.248306  Biso 1.000000     C
    C   1.0     0.724323     0.236042     0.351770  Biso 1.000000     C
    C   1.0     0.780897     0.082976     0.371069  Biso 1.000000     C
    C   1.0     0.846923     0.069416     0.334364  Biso 1.000000     C
    C   1.0     0.896651     0.985938     0.325343  Biso 1.000000     C
    C   1.0     0.881277     0.915147     0.351984  Biso 1.000000     C
    C   1.0     0.816057     0.930038     0.389336  Biso 1.000000     C
    C   1.0     0.766692     0.012717     0.399010  Biso 1.000000     C
    C   1.0     0.934904     0.827870     0.340342  Biso 1.000000     C
    C   1.0     0.565593     0.262467     0.350541  Biso 1.000000     C
    C   1.0     0.536237     0.194766     0.282479  Biso 1.000000     C
    C   1.0     0.565021     0.165324     0.236161  Biso 1.000000     C
    C   1.0     0.525355     0.114318     0.215196  Biso 1.000000     C
    C   1.0     0.456379     0.091947     0.239844  Biso 1.000000     C
    C   1.0     0.427481     0.122748     0.285692  Biso 1.000000     C
    C   1.0     0.466750     0.174076     0.307280  Biso 1.000000     C
    C   1.0     0.416481     0.033907     0.217767  Biso 1.000000     C
    O   1.0     0.343899     0.910491     0.102221  Biso 1.000000     O
    O   1.0     0.357711     0.784631     0.144022  Biso 1.000000     O
    O   1.0     0.360721     0.690922     0.922646  Biso 1.000000     O
    O   1.0     0.438649     0.543166     0.837457  Biso 1.000000     O
    O   1.0     0.815247     0.361716     0.749902  Biso 1.000000     O
    O   1.0     0.805991     0.494482     0.722398  Biso 1.000000     O
    O   1.0     0.160832     0.727516     0.883083  Biso 1.000000     O
    O   1.0     0.760596     0.906153     0.856267  Biso 1.000000     O
    O   1.0     0.812503     0.004290     0.816869  Biso 1.000000     O
    O   1.0     0.243678     0.580440     0.800302  Biso 1.000000     O
    O   1.0     0.016303     0.352507     0.740867  Biso 1.000000     O
    O   1.0     0.000000     0.448135     0.677313  Biso 1.000000     O
    O   1.0     0.089473     0.656125     0.397795  Biso 1.000000     O
    O   1.0     0.215347     0.642298     0.355995  Biso 1.000000     O
    O   1.0     0.309049     0.639255     0.577302  Biso 1.000000     O
    O   1.0     0.456869     0.561293     0.662501  Biso 1.000000     O
    O   1.0     0.638253     0.184730     0.750070  Biso 1.000000     O
    O   1.0     0.505492     0.194008     0.777590  Biso 1.000000     O
    O   1.0     0.272648     0.839130     0.616898  Biso 1.000000     O
    O   1.0     0.093843     0.239390     0.643717  Biso 1.000000     O
    O   1.0     0.995596     0.187496     0.683073  Biso 1.000000     O
    O   1.0     0.419571     0.756300     0.699630  Biso 1.000000     O
    O   1.0     0.647506     0.983652     0.759079  Biso 1.000000     O
    O   1.0     0.551871    -0.003271     0.822656  Biso 1.000000     O
    O   1.0     0.656073     0.089553     0.897759  Biso 1.000000     O
    O   1.0     0.642261     0.215408     0.855954  Biso 1.000000     O
    O   1.0     0.639247     0.309117     0.077331  Biso 1.000000     O
    O   1.0     0.561322     0.456885     0.162523  Biso 1.000000     O
    O   1.0     0.184727     0.638343     0.250083  Biso 1.000000     O
    O   1.0     0.193973     0.505571     0.277571  Biso 1.000000     O
    O   1.0     0.839130     0.272527     0.116894  Biso 1.000000     O
    O   1.0     0.239374     0.093892     0.143706  Biso 1.000000     O
    O   1.0     0.187461     0.995769     0.183113  Biso 1.000000     O
    O   1.0     0.756288     0.419600     0.199672  Biso 1.000000     O
    O   1.0     0.983667     0.647532     0.259096  Biso 1.000000     O
    O   1.0    -0.003267     0.551905     0.322652  Biso 1.000000     O
    O   1.0     0.910414     0.343907     0.602191  Biso 1.000000     O
    O   1.0     0.784559     0.357737     0.644009  Biso 1.000000     O
    O   1.0     0.690904     0.360801     0.422677  Biso 1.000000     O
    O   1.0     0.543107     0.438770     0.337478  Biso 1.000000     O
    O   1.0     0.361693     0.815337     0.249916  Biso 1.000000     O
    O   1.0     0.494448     0.806052     0.222381  Biso 1.000000     O
    O   1.0     0.727397     0.160952     0.383083  Biso 1.000000     O
    O   1.0     0.906103     0.760671     0.356259  Biso 1.000000     O
    O   1.0     0.004369     0.812539     0.316903  Biso 1.000000     O
    O   1.0     0.580430     0.243741     0.300334  Biso 1.000000     O
    O   1.0     0.352445     0.016435     0.240887  Biso 1.000000     O
    O   1.0     0.448106     0.000000     0.177321  Biso 1.000000     O
   Cd   1.0     0.344995     0.924789     0.182572  Biso 1.000000    Cd
   Cd   1.0     0.075277     0.654978     0.317442  Biso 1.000000    Cd
   Cd   1.0     0.654970     0.075271     0.817403  Biso 1.000000    Cd
   Cd   1.0     0.924681     0.345060     0.682532  Biso 1.000000    Cd
