#======================================================================

# CRYSTAL DATA

#----------------------------------------------------------------------

data_VESTA_phase_1


_pd_phase_name                         MOF
_cell_length_a                         22.95800
_cell_length_b                         12.51500
_cell_length_c                         14.85200
_cell_angle_alpha                      90.00000
_cell_angle_beta                       90.00000
_cell_angle_gamma                      90.00000
_symmetry_space_group_name_H-M         "P 1"
_symmetry_Int_Tables_number            1

loop_
_symmetry_equiv_pos_as_xyz
   "x, y, z"

loop_
   _atom_site_label
   _atom_site_occupancy
   _atom_site_fract_x
   _atom_site_fract_y
   _atom_site_fract_z
   _atom_site_adp_type
   _atom_site_B_iso_or_equiv
   _atom_site_type_symbol
    H   1.0     0.339563     0.709397     0.854554  Biso 1.000000     H
    H   1.0     0.839553     0.709396     0.854554  Biso 1.000000     H
    H   1.0     0.413549     0.568533     0.854342  Biso 1.000000     H
    H   1.0     0.913539     0.568532     0.854341  Biso 1.000000     H
    H   1.0     0.349578     0.840876     0.712732  Biso 1.000000     H
    H   1.0     0.849569     0.840875     0.712736  Biso 1.000000     H
    H   1.0     0.457433     0.832457     0.712133  Biso 1.000000     H
    H   1.0     0.957423     0.832459     0.712127  Biso 1.000000     H
    H   1.0     0.160424     0.290637     0.854554  Biso 1.000000     H
    H   1.0     0.660415     0.290638     0.854554  Biso 1.000000     H
    H   1.0     0.086438     0.431502     0.854341  Biso 1.000000     H
    H   1.0     0.586429     0.431502     0.854341  Biso 1.000000     H
    H   1.0     0.150411     0.159162     0.712734  Biso 1.000000     H
    H   1.0     0.650401     0.159162     0.712738  Biso 1.000000     H
    H   1.0     0.042556     0.167582     0.712132  Biso 1.000000     H
    H   1.0     0.542546     0.167580     0.712131  Biso 1.000000     H
    H   1.0     0.160427     0.709390     0.645424  Biso 1.000000     H
    H   1.0     0.660417     0.709392     0.645424  Biso 1.000000     H
    H   1.0     0.086440     0.568527     0.645636  Biso 1.000000     H
    H   1.0     0.586431     0.568528     0.645636  Biso 1.000000     H
    H   1.0     0.150408     0.840875     0.787243  Biso 1.000000     H
    H   1.0     0.650400     0.840875     0.787247  Biso 1.000000     H
    H   1.0     0.042554     0.832459     0.787852  Biso 1.000000     H
    H   1.0     0.542545     0.832457     0.787850  Biso 1.000000     H
    H   1.0     0.339561     0.290644     0.645424  Biso 1.000000     H
    H   1.0     0.839552     0.290644     0.645424  Biso 1.000000     H
    H   1.0     0.413548     0.431507     0.645636  Biso 1.000000     H
    H   1.0     0.913539     0.431507     0.645636  Biso 1.000000     H
    H   1.0     0.349578     0.159163     0.787241  Biso 1.000000     H
    H   1.0     0.849569     0.159162     0.787246  Biso 1.000000     H
    H   1.0     0.457433     0.167580     0.787852  Biso 1.000000     H
    H   1.0     0.957424     0.167582     0.787847  Biso 1.000000     H
    H   1.0     0.160425     0.290637     0.145431  Biso 1.000000     H
    H   1.0     0.660416     0.290638     0.145431  Biso 1.000000     H
    H   1.0     0.086439     0.431501     0.145644  Biso 1.000000     H
    H   1.0     0.586430     0.431502     0.145644  Biso 1.000000     H
    H   1.0     0.150411     0.159161     0.287251  Biso 1.000000     H
    H   1.0     0.650402     0.159162     0.287245  Biso 1.000000     H
    H   1.0     0.042556     0.167580     0.287854  Biso 1.000000     H
    H   1.0     0.542547     0.167580     0.287855  Biso 1.000000     H
    H   1.0     0.339564     0.709396     0.145431  Biso 1.000000     H
    H   1.0     0.839554     0.709396     0.145431  Biso 1.000000     H
    H   1.0     0.413550     0.568532     0.145644  Biso 1.000000     H
    H   1.0     0.913541     0.568531     0.145644  Biso 1.000000     H
    H   1.0     0.349579     0.840876     0.287255  Biso 1.000000     H
    H   1.0     0.849569     0.840874     0.287249  Biso 1.000000     H
    H   1.0     0.457434     0.832457     0.287853  Biso 1.000000     H
    H   1.0     0.957424     0.832457     0.287857  Biso 1.000000     H
    H   1.0     0.339562     0.290643     0.354561  Biso 1.000000     H
    H   1.0     0.839553     0.290643     0.354561  Biso 1.000000     H
    H   1.0     0.413548     0.431506     0.354349  Biso 1.000000     H
    H   1.0     0.913539     0.431506     0.354349  Biso 1.000000     H
    H   1.0     0.349579     0.159163     0.212746  Biso 1.000000     H
    H   1.0     0.849570     0.159161     0.212740  Biso 1.000000     H
    H   1.0     0.457433     0.167580     0.212134  Biso 1.000000     H
    H   1.0     0.957425     0.167581     0.212138  Biso 1.000000     H
    H   1.0     0.160427     0.709390     0.354561  Biso 1.000000     H
    H   1.0     0.660418     0.709391     0.354561  Biso 1.000000     H
    H   1.0     0.086440     0.568527     0.354349  Biso 1.000000     H
    H   1.0     0.586431     0.568528     0.354349  Biso 1.000000     H
    H   1.0     0.150409     0.840874     0.212742  Biso 1.000000     H
    H   1.0     0.650400     0.840875     0.212736  Biso 1.000000     H
    H   1.0     0.042555     0.832457     0.212135  Biso 1.000000     H
    H   1.0     0.542545     0.832457     0.212135  Biso 1.000000     H
    C   1.0     0.267102     0.845212     0.920209  Biso 1.000000     C
    C   1.0     0.767092     0.845211     0.920208  Biso 1.000000     C
    C   1.0     0.355818     0.679027     0.918553  Biso 1.000000     C
    C   1.0     0.855809     0.679027     0.918552  Biso 1.000000     C
    C   1.0     0.397622     0.599053     0.918505  Biso 1.000000     C
    C   1.0     0.897613     0.599052     0.918505  Biso 1.000000     C
    C   1.0     0.462305     0.404466     0.920177  Biso 1.000000     C
    C   1.0     0.962295     0.404466     0.920177  Biso 1.000000     C
    C   1.0     0.375495     0.910914     0.729990  Biso 1.000000     C
    C   1.0     0.875486     0.910912     0.729995  Biso 1.000000     C
    C   1.0     0.435974     0.907219     0.729722  Biso 1.000000     C
    C   1.0     0.935965     0.907222     0.729716  Biso 1.000000     C
    C   1.0     0.232886     0.154824     0.920208  Biso 1.000000     C
    C   1.0     0.732877     0.154824     0.920208  Biso 1.000000     C
    C   1.0     0.144169     0.321007     0.918552  Biso 1.000000     C
    C   1.0     0.644159     0.321007     0.918552  Biso 1.000000     C
    C   1.0     0.102364     0.400981     0.918505  Biso 1.000000     C
    C   1.0     0.602355     0.400982     0.918505  Biso 1.000000     C
    C   1.0     0.037682     0.595569     0.920177  Biso 1.000000     C
    C   1.0     0.537673     0.595569     0.920177  Biso 1.000000     C
    C   1.0     0.124494     0.089124     0.729991  Biso 1.000000     C
    C   1.0     0.624484     0.089125     0.729996  Biso 1.000000     C
    C   1.0     0.064015     0.092820     0.729722  Biso 1.000000     C
    C   1.0     0.564005     0.092817     0.729720  Biso 1.000000     C
    C   1.0     0.232886     0.845209     0.579769  Biso 1.000000     C
    C   1.0     0.732877     0.845210     0.579769  Biso 1.000000     C
    C   1.0     0.144171     0.679021     0.581425  Biso 1.000000     C
    C   1.0     0.644162     0.679022     0.581425  Biso 1.000000     C
    C   1.0     0.102367     0.599047     0.581472  Biso 1.000000     C
    C   1.0     0.602357     0.599048     0.581472  Biso 1.000000     C
    C   1.0     0.037681     0.404464     0.579801  Biso 1.000000     C
    C   1.0     0.537672     0.404464     0.579801  Biso 1.000000     C
    C   1.0     0.124492     0.910912     0.769985  Biso 1.000000     C
    C   1.0     0.624483     0.910913     0.769990  Biso 1.000000     C
    C   1.0     0.064012     0.907222     0.770263  Biso 1.000000     C
    C   1.0     0.564004     0.907219     0.770260  Biso 1.000000     C
    C   1.0     0.267102     0.154826     0.579769  Biso 1.000000     C
    C   1.0     0.767093     0.154826     0.579769  Biso 1.000000     C
    C   1.0     0.355817     0.321013     0.581426  Biso 1.000000     C
    C   1.0     0.855808     0.321013     0.581425  Biso 1.000000     C
    C   1.0     0.397622     0.400987     0.581472  Biso 1.000000     C
    C   1.0     0.897612     0.400987     0.581472  Biso 1.000000     C
    C   1.0     0.462306     0.595571     0.579800  Biso 1.000000     C
    C   1.0     0.962297     0.595571     0.579800  Biso 1.000000     C
    C   1.0     0.375496     0.089125     0.769984  Biso 1.000000     C
    C   1.0     0.875486     0.089123     0.769989  Biso 1.000000     C
    C   1.0     0.435975     0.092817     0.770263  Biso 1.000000     C
    C   1.0     0.935965     0.092820     0.770257  Biso 1.000000     C
    C   1.0     0.232887     0.154824     0.079777  Biso 1.000000     C
    C   1.0     0.732878     0.154824     0.079777  Biso 1.000000     C
    C   1.0     0.144170     0.321007     0.081433  Biso 1.000000     C
    C   1.0     0.644161     0.321007     0.081433  Biso 1.000000     C
    C   1.0     0.102366     0.400981     0.081480  Biso 1.000000     C
    C   1.0     0.602357     0.400982     0.081480  Biso 1.000000     C
    C   1.0     0.037684     0.595568     0.079808  Biso 1.000000     C
    C   1.0     0.537675     0.595569     0.079808  Biso 1.000000     C
    C   1.0     0.124494     0.089123     0.269993  Biso 1.000000     C
    C   1.0     0.624485     0.089125     0.269987  Biso 1.000000     C
    C   1.0     0.064015     0.092818     0.270264  Biso 1.000000     C
    C   1.0     0.564005     0.092816     0.270266  Biso 1.000000     C
    C   1.0     0.267103     0.845211     0.079777  Biso 1.000000     C
    C   1.0     0.767093     0.845211     0.079777  Biso 1.000000     C
    C   1.0     0.355819     0.679027     0.081433  Biso 1.000000     C
    C   1.0     0.855810     0.679026     0.081433  Biso 1.000000     C
    C   1.0     0.397624     0.599053     0.081480  Biso 1.000000     C
    C   1.0     0.897614     0.599052     0.081480  Biso 1.000000     C
    C   1.0     0.462306     0.404466     0.079808  Biso 1.000000     C
    C   1.0     0.962297     0.404465     0.079808  Biso 1.000000     C
    C   1.0     0.375495     0.910914     0.269997  Biso 1.000000     C
    C   1.0     0.875486     0.910912     0.269991  Biso 1.000000     C
    C   1.0     0.435974     0.907219     0.270263  Biso 1.000000     C
    C   1.0     0.935965     0.907220     0.270268  Biso 1.000000     C
    C   1.0     0.267102     0.154826     0.420216  Biso 1.000000     C
    C   1.0     0.767093     0.154825     0.420216  Biso 1.000000     C
    C   1.0     0.355817     0.321012     0.418560  Biso 1.000000     C
    C   1.0     0.855808     0.321012     0.418560  Biso 1.000000     C
    C   1.0     0.397622     0.400986     0.418513  Biso 1.000000     C
    C   1.0     0.897613     0.400986     0.418513  Biso 1.000000     C
    C   1.0     0.462306     0.595571     0.420184  Biso 1.000000     C
    C   1.0     0.962298     0.595570     0.420184  Biso 1.000000     C
    C   1.0     0.375496     0.089126     0.230004  Biso 1.000000     C
    C   1.0     0.875487     0.089123     0.229997  Biso 1.000000     C
    C   1.0     0.435975     0.092816     0.229723  Biso 1.000000     C
    C   1.0     0.935966     0.092818     0.229727  Biso 1.000000     C
    C   1.0     0.232886     0.845209     0.420216  Biso 1.000000     C
    C   1.0     0.732877     0.845209     0.420216  Biso 1.000000     C
    C   1.0     0.144172     0.679021     0.418560  Biso 1.000000     C
    C   1.0     0.644162     0.679022     0.418560  Biso 1.000000     C
    C   1.0     0.102367     0.599047     0.418513  Biso 1.000000     C
    C   1.0     0.602357     0.599048     0.418513  Biso 1.000000     C
    C   1.0     0.037682     0.404464     0.420185  Biso 1.000000     C
    C   1.0     0.537672     0.404464     0.420185  Biso 1.000000     C
    C   1.0     0.124492     0.910912     0.229999  Biso 1.000000     C
    C   1.0     0.624484     0.910914     0.229993  Biso 1.000000     C
    C   1.0     0.064013     0.907220     0.229724  Biso 1.000000     C
    C   1.0     0.564004     0.907219     0.229726  Biso 1.000000     C
    C   1.0     0.467768     0.000003     0.749984  Biso 1.000000     C
    C   1.0     0.967759     0.000001     0.749998  Biso 1.000000     C
    C   1.0     0.032220     0.000001     0.749982  Biso 1.000000     C
    C   1.0     0.532211     0.000003     0.749999  Biso 1.000000     C
    C   1.0     0.032221     0.000001     0.250000  Biso 1.000000     C
    C   1.0     0.532212     0.000004     0.249983  Biso 1.000000     C
    C   1.0     0.467769     0.000004     0.250005  Biso 1.000000     C
    C   1.0     0.967760     0.000001     0.249991  Biso 1.000000     C
    C   1.0     0.289265     0.803850     0.000000  Biso 1.000000     C
    C   1.0     0.789255     0.803849    -0.000000  Biso 1.000000     C
    C   1.0     0.333776     0.720796     0.999985  Biso 1.000000     C
    C   1.0     0.833767     0.720796     0.999985  Biso 1.000000     C
    C   1.0     0.419018     0.558078     0.000000  Biso 1.000000     C
    C   1.0     0.919008     0.558077     0.999985  Biso 1.000000     C
    C   1.0     0.466564     0.473155     0.999985  Biso 1.000000     C
    C   1.0     0.966556     0.473155    -0.000000  Biso 1.000000     C
    C   1.0     0.210725     0.196184    -0.000000  Biso 1.000000     C
    C   1.0     0.710716     0.196185    -0.000000  Biso 1.000000     C
    C   1.0     0.166212     0.279238    -0.000000  Biso 1.000000     C
    C   1.0     0.666203     0.279238    -0.000000  Biso 1.000000     C
    C   1.0     0.080971     0.441956    -0.000000  Biso 1.000000     C
    C   1.0     0.580961     0.441957     0.999985  Biso 1.000000     C
    C   1.0     0.033424     0.526879     0.000000  Biso 1.000000     C
    C   1.0     0.533415     0.526880    -0.000000  Biso 1.000000     C
    C   1.0     0.210725     0.803845     0.499993  Biso 1.000000     C
    C   1.0     0.710716     0.803846     0.499992  Biso 1.000000     C
    C   1.0     0.166213     0.720790     0.499993  Biso 1.000000     C
    C   1.0     0.666204     0.720792     0.499992  Biso 1.000000     C
    C   1.0     0.080972     0.558073     0.499993  Biso 1.000000     C
    C   1.0     0.580962     0.558074     0.499993  Biso 1.000000     C
    C   1.0     0.033423     0.473153     0.499993  Biso 1.000000     C
    C   1.0     0.533414     0.473154     0.499993  Biso 1.000000     C
    C   1.0     0.289263     0.196188     0.499993  Biso 1.000000     C
    C   1.0     0.789254     0.196188     0.499992  Biso 1.000000     C
    C   1.0     0.333775     0.279243     0.499993  Biso 1.000000     C
    C   1.0     0.833766     0.279243     0.499992  Biso 1.000000     C
    C   1.0     0.419017     0.441961     0.499993  Biso 1.000000     C
    C   1.0     0.919008     0.441961     0.499992  Biso 1.000000     C
    C   1.0     0.466565     0.526881     0.499992  Biso 1.000000     C
    C   1.0     0.966556     0.526881     0.499992  Biso 1.000000     C
    N   1.0     0.248387     0.877822     0.851710  Biso 1.000000     N
    N   1.0     0.748377     0.877821     0.851709  Biso 1.000000     N
    N   1.0     0.457775     0.351581     0.855969  Biso 1.000000     N
    N   1.0     0.957766     0.351581     0.855969  Biso 1.000000     N
    N   1.0     0.251601     0.122214     0.851710  Biso 1.000000     N
    N   1.0     0.751592     0.122214     0.851709  Biso 1.000000     N
    N   1.0     0.042211     0.648454     0.855970  Biso 1.000000     N
    N   1.0     0.542202     0.648454     0.855970  Biso 1.000000     N
    N   1.0     0.251600     0.877821     0.648268  Biso 1.000000     N
    N   1.0     0.751591     0.877822     0.648267  Biso 1.000000     N
    N   1.0     0.042210     0.351579     0.644008  Biso 1.000000     N
    N   1.0     0.542201     0.351580     0.644008  Biso 1.000000     N
    N   1.0     0.248387     0.122214     0.648268  Biso 1.000000     N
    N   1.0     0.748378     0.122213     0.648267  Biso 1.000000     N
    N   1.0     0.457778     0.648456     0.644008  Biso 1.000000     N
    N   1.0     0.957769     0.648456     0.644007  Biso 1.000000     N
    N   1.0     0.251602     0.122213     0.148275  Biso 1.000000     N
    N   1.0     0.751593     0.122214     0.148275  Biso 1.000000     N
    N   1.0     0.042213     0.648453     0.144015  Biso 1.000000     N
    N   1.0     0.542204     0.648454     0.144015  Biso 1.000000     N
    N   1.0     0.248388     0.877822     0.148275  Biso 1.000000     N
    N   1.0     0.748378     0.877821     0.148275  Biso 1.000000     N
    N   1.0     0.457777     0.351581     0.144015  Biso 1.000000     N
    N   1.0     0.957767     0.351581     0.144015  Biso 1.000000     N
    N   1.0     0.248387     0.122214     0.351718  Biso 1.000000     N
    N   1.0     0.748379     0.122213     0.351718  Biso 1.000000     N
    N   1.0     0.457778     0.648456     0.355977  Biso 1.000000     N
    N   1.0     0.957769     0.648455     0.355977  Biso 1.000000     N
    N   1.0     0.251601     0.877821     0.351717  Biso 1.000000     N
    N   1.0     0.751591     0.877821     0.351718  Biso 1.000000     N
    N   1.0     0.042210     0.351578     0.355977  Biso 1.000000     N
    N   1.0     0.542201     0.351579     0.355977  Biso 1.000000     N
    N   1.0     0.345194    -0.000001     0.749998  Biso 1.000000     N
    N   1.0     0.845185     0.000005     0.749976  Biso 1.000000     N
    N   1.0     0.154795     0.000004     0.750000  Biso 1.000000     N
    N   1.0     0.654786    -0.000001     0.749982  Biso 1.000000     N
    N   1.0     0.154796     0.000002     0.249990  Biso 1.000000     N
    N   1.0     0.654786    -0.000002     0.250007  Biso 1.000000     N
    N   1.0     0.345194    -0.000002     0.249984  Biso 1.000000     N
    N   1.0     0.845185     0.000003     0.250004  Biso 1.000000     N
   Zn   1.0     0.249994     0.000001     0.749989  Biso 1.000000    Zn
   Zn   1.0     0.749985     0.000001     0.749988  Biso 1.000000    Zn
   Zn   1.0     0.249995     0.000000     0.249996  Biso 1.000000    Zn
   Zn   1.0     0.749986     0.000000     0.249997  Biso 1.000000    Zn
