#======================================================================

# CRYSTAL DATA

#----------------------------------------------------------------------

data_VESTA_phase_1


_pd_phase_name                         MOF
_cell_length_a                         12.38700
_cell_length_b                         24.98000
_cell_length_c                         25.34300
_cell_angle_alpha                      89.13200
_cell_angle_beta                       82.98100
_cell_angle_gamma                      82.87900
_symmetry_space_group_name_H-M         "P 1"
_symmetry_Int_Tables_number            1

loop_
_symmetry_equiv_pos_as_xyz
   "x, y, z"

loop_
   _atom_site_label
   _atom_site_occupancy
   _atom_site_fract_x
   _atom_site_fract_y
   _atom_site_fract_z
   _atom_site_adp_type
   _atom_site_B_iso_or_equiv
   _atom_site_type_symbol
    H   1.0     0.097233     0.357503     0.826173  Biso 1.000000     H
    H   1.0     0.578487     0.357505     0.826178  Biso 1.000000     H
    H   1.0    -0.036987     0.440377     0.816170  Biso 1.000000     H
    H   1.0     0.444287     0.440387     0.816173  Biso 1.000000     H
    H   1.0     0.341320     0.361735     0.683536  Biso 1.000000     H
    H   1.0     0.822579     0.361715     0.683534  Biso 1.000000     H
    H   1.0     0.001061     0.284114     0.696791  Biso 1.000000     H
    H   1.0     0.482297     0.284124     0.696794  Biso 1.000000     H
    H   1.0     0.455565     0.422728     0.582334  Biso 1.000000     H
    H   1.0     0.936843     0.422738     0.582354  Biso 1.000000     H
    H   1.0     0.118304     0.417537     0.644698  Biso 1.000000     H
    H   1.0     0.599540     0.417515     0.644682  Biso 1.000000     H
    H   1.0     0.030167     0.588139     0.672814  Biso 1.000000     H
    H   1.0     0.511419     0.588116     0.672813  Biso 1.000000     H
    H   1.0     0.370533     0.586542     0.609204  Biso 1.000000     H
    H   1.0     0.851791     0.586552     0.609210  Biso 1.000000     H
    H   1.0     0.230805     0.735886     0.762194  Biso 1.000000     H
    H   1.0     0.712096     0.735868     0.762086  Biso 1.000000     H
    H   1.0     0.177089     0.650980     0.728719  Biso 1.000000     H
    H   1.0     0.658322     0.650944     0.728677  Biso 1.000000     H
    H   1.0     0.411318     0.562274     0.820431  Biso 1.000000     H
    H   1.0     0.892557     0.562281     0.820412  Biso 1.000000     H
    H   1.0    -0.028708     0.651706     0.852965  Biso 1.000000     H
    H   1.0     0.452518     0.651683     0.853047  Biso 1.000000     H
    H   1.0     0.170424     0.664139     0.239033  Biso 1.000000     H
    H   1.0     0.651718     0.664134     0.239041  Biso 1.000000     H
    H   1.0     0.072497     0.581334     0.248449  Biso 1.000000     H
    H   1.0     0.553791     0.581328     0.248461  Biso 1.000000     H
    H   1.0     0.343603     0.659751     0.380725  Biso 1.000000     H
    H   1.0     0.824866     0.659741     0.380735  Biso 1.000000     H
    H   1.0     0.452516     0.737338     0.368037  Biso 1.000000     H
    H   1.0     0.933780     0.737328     0.368048  Biso 1.000000     H
    H   1.0     0.436278     0.597352     0.480645  Biso 1.000000     H
    H   1.0     0.917553     0.597356     0.480646  Biso 1.000000     H
    H   1.0     0.127817     0.603277     0.418687  Biso 1.000000     H
    H   1.0     0.609062     0.603271     0.418687  Biso 1.000000     H
    H   1.0     0.142902     0.432433     0.390817  Biso 1.000000     H
    H   1.0     0.624151     0.432426     0.390822  Biso 1.000000     H
    H   1.0     0.450343     0.433295     0.454022  Biso 1.000000     H
    H   1.0     0.931616     0.433301     0.454020  Biso 1.000000     H
    H   1.0     0.463316     0.285627     0.302366  Biso 1.000000     H
    H   1.0     0.944580     0.285623     0.302367  Biso 1.000000     H
    H   1.0     0.349293     0.370416     0.335287  Biso 1.000000     H
    H   1.0     0.830551     0.370410     0.335288  Biso 1.000000     H
    H   1.0     0.102964     0.459416     0.243357  Biso 1.000000     H
    H   1.0     0.584235     0.459417     0.243359  Biso 1.000000     H
    H   1.0     0.206305     0.370071     0.211272  Biso 1.000000     H
    H   1.0     0.687573     0.370070     0.211274  Biso 1.000000     H
    H   1.0     0.343753     0.867485     0.769965  Biso 1.000000     H
    H   1.0     0.824985     0.867515     0.769890  Biso 1.000000     H
    H   1.0     0.204222     0.950272     0.779399  Biso 1.000000     H
    H   1.0     0.685448     0.950300     0.779376  Biso 1.000000     H
    H   1.0     0.033802     0.871844     0.911842  Biso 1.000000     H
    H   1.0     0.515128     0.871821     0.911815  Biso 1.000000     H
    H   1.0     0.181625     0.794299     0.899109  Biso 1.000000     H
    H   1.0     0.662937     0.794277     0.899025  Biso 1.000000     H
    H   1.0     0.097438     0.932497     0.000000  Biso 1.000000     H
    H   1.0     0.578684     0.932503     0.000000  Biso 1.000000     H
    H   1.0     0.272753     0.927354     0.950342  Biso 1.000000     H
    H   1.0     0.753994     0.927361     0.950337  Biso 1.000000     H
    H   1.0     0.217606     0.077521     0.922312  Biso 1.000000     H
    H   1.0     0.698845     0.077532     0.922314  Biso 1.000000     H
    H   1.0     0.044775     0.075883     0.985808  Biso 1.000000     H
    H   1.0     0.526020     0.075890     0.985814  Biso 1.000000     H
    H   1.0    -0.019965     0.225337     0.833229  Biso 1.000000     H
    H   1.0     0.461276     0.225339     0.833229  Biso 1.000000     H
    H   1.0     0.391192     0.140171     0.866177  Biso 1.000000     H
    H   1.0     0.872460     0.140170     0.866173  Biso 1.000000     H
    H   1.0     0.191987     0.052142     0.775297  Biso 1.000000     H
    H   1.0     0.673240     0.052146     0.775302  Biso 1.000000     H
    H   1.0     0.249191     0.141790     0.743204  Biso 1.000000     H
    H   1.0     0.730438     0.141793     0.743206  Biso 1.000000     H
    H   1.0     0.165934     0.153636     0.294097  Biso 1.000000     H
    H   1.0     0.647193     0.153636     0.294099  Biso 1.000000     H
    H   1.0     0.073706     0.070621     0.284059  Biso 1.000000     H
    H   1.0     0.554966     0.070620     0.284061  Biso 1.000000     H
    H   1.0     0.410859     0.149427     0.151994  Biso 1.000000     H
    H   1.0     0.892118     0.149431     0.151993  Biso 1.000000     H
    H   1.0     0.031269     0.227207     0.165258  Biso 1.000000     H
    H   1.0     0.512516     0.227206     0.165261  Biso 1.000000     H
    H   1.0     0.073413     0.087313     0.051550  Biso 1.000000     H
    H   1.0     0.554657     0.087317     0.051549  Biso 1.000000     H
    H   1.0     0.215004     0.092919     0.113677  Biso 1.000000     H
    H   1.0     0.696249     0.092925     0.113675  Biso 1.000000     H
    H   1.0     0.197170     0.942411     0.140802  Biso 1.000000     H
    H   1.0     0.678416     0.942416     0.140801  Biso 1.000000     H
    H   1.0     0.055165     0.943602     0.077452  Biso 1.000000     H
    H   1.0     0.536410     0.943606     0.077452  Biso 1.000000     H
    H   1.0    -0.008261     0.795505     0.230635  Biso 1.000000     H
    H   1.0     0.472986     0.795502     0.230647  Biso 1.000000     H
    H   1.0     0.375810     0.880094     0.197124  Biso 1.000000     H
    H   1.0     0.857071     0.880097     0.197116  Biso 1.000000     H
    H   1.0     0.082376     0.969608     0.289172  Biso 1.000000     H
    H   1.0     0.563683     0.969606     0.289150  Biso 1.000000     H
    H   1.0     0.169266     0.880459     0.321855  Biso 1.000000     H
    H   1.0     0.650582     0.880458     0.321833  Biso 1.000000     H
    C   1.0     0.043345     0.360960     0.794980  Biso 1.000000     C
    C   1.0     0.524603     0.360965     0.794983  Biso 1.000000     C
    C   1.0    -0.030807     0.406294     0.789313  Biso 1.000000     C
    C   1.0     0.450459     0.406304     0.789317  Biso 1.000000     C
    C   1.0     0.384008     0.407991     0.748219  Biso 1.000000     C
    C   1.0     0.865254     0.407975     0.748218  Biso 1.000000     C
    C   1.0     0.393066     0.362915     0.715139  Biso 1.000000     C
    C   1.0     0.874327     0.362900     0.715136  Biso 1.000000     C
    C   1.0    -0.009918     0.319353     0.722565  Biso 1.000000     C
    C   1.0     0.471329     0.319365     0.722567  Biso 1.000000     C
    C   1.0     0.310237     0.457687     0.739142  Biso 1.000000     C
    C   1.0     0.791473     0.457667     0.739139  Biso 1.000000     C
    C   1.0     0.266025     0.548160     0.750932  Biso 1.000000     C
    C   1.0     0.747247     0.548140     0.750928  Biso 1.000000     C
    C   1.0     0.170868     0.502391     0.699286  Biso 1.000000     C
    C   1.0     0.652102     0.502365     0.699281  Biso 1.000000     C
    C   1.0    -0.010828     0.458205     0.603635  Biso 1.000000     C
    C   1.0     0.470415     0.458192     0.603620  Biso 1.000000     C
    C   1.0     0.068166     0.455452     0.638416  Biso 1.000000     C
    C   1.0     0.549408     0.455432     0.638402  Biso 1.000000     C
    C   1.0     0.084084     0.502597     0.664037  Biso 1.000000     C
    C   1.0     0.565321     0.502573     0.664032  Biso 1.000000     C
    C   1.0     0.018804     0.550752     0.653999  Biso 1.000000     C
    C   1.0     0.500054     0.550732     0.653993  Biso 1.000000     C
    C   1.0     0.422855     0.550195     0.618848  Biso 1.000000     C
    C   1.0     0.904119     0.550208     0.618855  Biso 1.000000     C
    C   1.0     0.269509     0.696754     0.774206  Biso 1.000000     C
    C   1.0     0.750781     0.696741     0.774122  Biso 1.000000     C
    C   1.0     0.239215     0.649315     0.755768  Biso 1.000000     C
    C   1.0     0.720466     0.649295     0.755715  Biso 1.000000     C
    C   1.0     0.290852     0.599776     0.771918  Biso 1.000000     C
    C   1.0     0.772078     0.599762     0.771895  Biso 1.000000     C
    C   1.0     0.369639     0.600092     0.807212  Biso 1.000000     C
    C   1.0     0.850892     0.600093     0.807172  Biso 1.000000     C
    C   1.0     0.393662     0.649102     0.824749  Biso 1.000000     C
    C   1.0     0.874932     0.649111     0.824681  Biso 1.000000     C
    C   1.0     0.102301     0.660659     0.270023  Biso 1.000000     C
    C   1.0     0.583584     0.660658     0.270027  Biso 1.000000     C
    C   1.0     0.047861     0.615348     0.275359  Biso 1.000000     C
    C   1.0     0.529150     0.615346     0.275366  Biso 1.000000     C
    C   1.0     0.442464     0.613576     0.316181  Biso 1.000000     C
    C   1.0     0.923708     0.613573     0.316182  Biso 1.000000     C
    C   1.0     0.412113     0.658600     0.349315  Biso 1.000000     C
    C   1.0     0.893363     0.658595     0.349318  Biso 1.000000     C
    C   1.0    -0.008823     0.702137     0.342221  Biso 1.000000     C
    C   1.0     0.472436     0.702145     0.342214  Biso 1.000000     C
    C   1.0     0.389092     0.563798     0.324946  Biso 1.000000     C
    C   1.0     0.870327     0.563796     0.324941  Biso 1.000000     C
    C   1.0     0.396855     0.473313     0.312882  Biso 1.000000     C
    C   1.0     0.878089     0.473311     0.312871  Biso 1.000000     C
    C   1.0     0.252255     0.518740     0.364377  Biso 1.000000     C
    C   1.0     0.733490     0.518737     0.364370  Biso 1.000000     C
    C   1.0    -0.000862     0.561999     0.459504  Biso 1.000000     C
    C   1.0     0.480384     0.561994     0.459506  Biso 1.000000     C
    C   1.0     0.094307     0.565149     0.424928  Biso 1.000000     C
    C   1.0     0.575550     0.565143     0.424926  Biso 1.000000     C
    C   1.0     0.147771     0.518156     0.399443  Biso 1.000000     C
    C   1.0     0.629025     0.518149     0.399449  Biso 1.000000     C
    C   1.0     0.102541     0.469727     0.409486  Biso 1.000000     C
    C   1.0     0.583785     0.469721     0.409487  Biso 1.000000     C
    C   1.0     0.007284     0.469882     0.444428  Biso 1.000000     C
    C   1.0     0.488532     0.469876     0.444430  Biso 1.000000     C
    C   1.0     0.006779     0.324791     0.290178  Biso 1.000000     C
    C   1.0     0.488029     0.324795     0.290173  Biso 1.000000     C
    C   1.0     0.424173     0.372173     0.308309  Biso 1.000000     C
    C   1.0     0.905421     0.372168     0.308304  Biso 1.000000     C
    C   1.0     0.458563     0.421779     0.291978  Biso 1.000000     C
    C   1.0     0.939822     0.421775     0.291985  Biso 1.000000     C
    C   1.0     0.073974     0.421561     0.256756  Biso 1.000000     C
    C   1.0     0.555250     0.421562     0.256762  Biso 1.000000     C
    C   1.0     0.131925     0.372587     0.239513  Biso 1.000000     C
    C   1.0     0.613185     0.372586     0.239510  Biso 1.000000     C
    C   1.0     0.273947     0.870981     0.800988  Biso 1.000000     C
    C   1.0     0.755203     0.870999     0.800925  Biso 1.000000     C
    C   1.0     0.196774     0.916263     0.806337  Biso 1.000000     C
    C   1.0     0.678023     0.916278     0.806300  Biso 1.000000     C
    C   1.0     0.109386     0.917990     0.847237  Biso 1.000000     C
    C   1.0     0.590668     0.917994     0.847217  Biso 1.000000     C
    C   1.0     0.101651     0.872984     0.880392  Biso 1.000000     C
    C   1.0     0.582951     0.872973     0.880352  Biso 1.000000     C
    C   1.0     0.183782     0.829487     0.873274  Biso 1.000000     C
    C   1.0     0.665081     0.829479     0.873207  Biso 1.000000     C
    C   1.0     0.030888     0.967638     0.856116  Biso 1.000000     C
    C   1.0     0.512162     0.967638     0.856111  Biso 1.000000     C
    C   1.0     0.011226     0.037617     0.844232  Biso 1.000000     C
    C   1.0     0.492483     0.037617     0.844231  Biso 1.000000     C
    C   1.0     0.352585     0.000000     0.895800  Biso 1.000000     C
    C   1.0     0.833826     0.000000     0.895799  Biso 1.000000     C
    C   1.0     0.122965     0.967980     0.991329  Biso 1.000000     C
    C   1.0     0.604209     0.967986     0.991327  Biso 1.000000     C
    C   1.0     0.219428     0.965255     0.956607  Biso 1.000000     C
    C   1.0     0.700669     0.965262     0.956603  Biso 1.000000     C
    C   1.0     0.248164     0.000000     0.931029  Biso 1.000000     C
    C   1.0     0.729401     0.000000     0.931026  Biso 1.000000     C
    C   1.0     0.196793     0.040118     0.941075  Biso 1.000000     C
    C   1.0     0.678034     0.040127     0.941075  Biso 1.000000     C
    C   1.0     0.101947     0.039546     0.976163  Biso 1.000000     C
    C   1.0     0.583192     0.039553     0.976165  Biso 1.000000     C
    C   1.0     0.025255     0.186290     0.821287  Biso 1.000000     C
    C   1.0     0.506499     0.186293     0.821287  Biso 1.000000     C
    C   1.0    -0.014062     0.138718     0.839406  Biso 1.000000     C
    C   1.0     0.467188     0.138720     0.839411  Biso 1.000000     C
    C   1.0     0.046339     0.089304     0.823373  Biso 1.000000     C
    C   1.0     0.527594     0.089308     0.823379  Biso 1.000000     C
    C   1.0     0.143204     0.089861     0.788441  Biso 1.000000     C
    C   1.0     0.624456     0.089865     0.788446  Biso 1.000000     C
    C   1.0     0.175838     0.138994     0.771210  Biso 1.000000     C
    C   1.0     0.657084     0.138997     0.771211  Biso 1.000000     C
    C   1.0     0.113530     0.150194     0.263005  Biso 1.000000     C
    C   1.0     0.594784     0.150194     0.263009  Biso 1.000000     C
    C   1.0     0.062307     0.104773     0.257331  Biso 1.000000     C
    C   1.0     0.543569     0.104771     0.257331  Biso 1.000000     C
    C   1.0    -0.003715     0.103066     0.216401  Biso 1.000000     C
    C   1.0     0.477545     0.103064     0.216403  Biso 1.000000     C
    C   1.0     0.463484     0.148235     0.183482  Biso 1.000000     C
    C   1.0     0.944740     0.148238     0.183482  Biso 1.000000     C
    C   1.0     0.038482     0.191888     0.190905  Biso 1.000000     C
    C   1.0     0.519731     0.191888     0.190909  Biso 1.000000     C
    C   1.0     0.428885     0.053249     0.207404  Biso 1.000000     C
    C   1.0     0.910144     0.053252     0.207398  Biso 1.000000     C
    C   1.0     0.411780     0.983189     0.219344  Biso 1.000000     C
    C   1.0     0.893034     0.983191     0.219340  Biso 1.000000     C
    C   1.0     0.312126     0.008184     0.167729  Biso 1.000000     C
    C   1.0     0.793387     0.008186     0.167722  Biso 1.000000     C
    C   1.0     0.106887     0.051851     0.072561  Biso 1.000000     C
    C   1.0     0.588129     0.051856     0.072562  Biso 1.000000     C
    C   1.0     0.184640     0.054830     0.107236  Biso 1.000000     C
    C   1.0     0.665892     0.054833     0.107232  Biso 1.000000     C
    C   1.0     0.225341     0.007710     0.132541  Biso 1.000000     C
    C   1.0     0.706581     0.007716     0.132544  Biso 1.000000     C
    C   1.0     0.166200     0.979796     0.122266  Biso 1.000000     C
    C   1.0     0.647453     0.979801     0.122262  Biso 1.000000     C
    C   1.0     0.088529     0.980130     0.087230  Biso 1.000000     C
    C   1.0     0.569772     0.980135     0.087231  Biso 1.000000     C
    C   1.0     0.010221     0.834739     0.242704  Biso 1.000000     C
    C   1.0     0.491484     0.834736     0.242708  Biso 1.000000     C
    C   1.0     0.436879     0.882012     0.224244  Biso 1.000000     C
    C   1.0     0.918131     0.882016     0.224242  Biso 1.000000     C
    C   1.0    -0.018334     0.931711     0.240420  Biso 1.000000     C
    C   1.0     0.462954     0.931708     0.240410  Biso 1.000000     C
    C   1.0     0.060256     0.931677     0.275873  Biso 1.000000     C
    C   1.0     0.541552     0.931675     0.275858  Biso 1.000000     C
    C   1.0     0.109371     0.882800     0.293443  Biso 1.000000     C
    C   1.0     0.590671     0.882799     0.293429  Biso 1.000000     C
    N   1.0     0.055674     0.318562     0.761392  Biso 1.000000     N
    N   1.0     0.536923     0.318569     0.761395  Biso 1.000000     N
    N   1.0     0.232292     0.455197     0.707020  Biso 1.000000     N
    N   1.0     0.713532     0.455172     0.707016  Biso 1.000000     N
    N   1.0     0.184686     0.549991     0.720180  Biso 1.000000     N
    N   1.0     0.665897     0.549964     0.720184  Biso 1.000000     N
    N   1.0     0.329478     0.502999     0.762643  Biso 1.000000     N
    N   1.0     0.810692     0.502980     0.762648  Biso 1.000000     N
    N   1.0     0.408385     0.504702     0.593810  Biso 1.000000     N
    N   1.0     0.889654     0.504712     0.593820  Biso 1.000000     N
    N   1.0     0.345372     0.696779     0.808099  Biso 1.000000     N
    N   1.0     0.826657     0.696781     0.808007  Biso 1.000000     N
    N   1.0     0.076314     0.702994     0.303674  Biso 1.000000     N
    N   1.0     0.557589     0.702996     0.303673  Biso 1.000000     N
    N   1.0     0.293579     0.566063     0.356857  Biso 1.000000     N
    N   1.0     0.774833     0.566056     0.356865  Biso 1.000000     N
    N   1.0     0.300870     0.471264     0.343411  Biso 1.000000     N
    N   1.0     0.782127     0.471258     0.343419  Biso 1.000000     N
    N   1.0     0.443217     0.518610     0.301377  Biso 1.000000     N
    N   1.0     0.924466     0.518606     0.301382  Biso 1.000000     N
    N   1.0     0.437602     0.515243     0.469298  Biso 1.000000     N
    N   1.0     0.918875     0.515248     0.469299  Biso 1.000000     N
    N   1.0     0.099753     0.324855     0.256410  Biso 1.000000     N
    N   1.0     0.581016     0.324856     0.256413  Biso 1.000000     N
    N   1.0     0.269231     0.828678     0.834684  Biso 1.000000     N
    N   1.0     0.750509     0.828684     0.834608  Biso 1.000000     N
    N   1.0     0.418083     0.965087     0.888159  Biso 1.000000     N
    N   1.0     0.899308     0.965091     0.888151  Biso 1.000000     N
    N   1.0     0.395652     0.039378     0.874872  Biso 1.000000     N
    N   1.0     0.876903     0.039382     0.874867  Biso 1.000000     N
    N   1.0     0.061831     0.000000     0.832618  Biso 1.000000     N
    N   1.0     0.543104     0.000000     0.832623  Biso 1.000000     N
    N   1.0     0.055964     0.000000     0.000000  Biso 1.000000     N
    N   1.0     0.537210     0.000000     0.000000  Biso 1.000000     N
    N   1.0     0.118598     0.186543     0.787823  Biso 1.000000     N
    N   1.0     0.599841     0.186546     0.787823  Biso 1.000000     N
    N   1.0     0.104036     0.192710     0.229586  Biso 1.000000     N
    N   1.0     0.585290     0.192708     0.229588  Biso 1.000000     N
    N   1.0     0.349564     0.055512     0.175371  Biso 1.000000     N
    N   1.0     0.830805     0.055518     0.175375  Biso 1.000000     N
    N   1.0     0.331355     0.981120     0.188628  Biso 1.000000     N
    N   1.0     0.812586     0.981126     0.188636  Biso 1.000000     N
    N   1.0     0.471276     0.008034     0.230895  Biso 1.000000     N
    N   1.0     0.952512     0.008038     0.230901  Biso 1.000000     N
    N   1.0     0.069032     0.005156     0.062516  Biso 1.000000     N
    N   1.0     0.550280     0.005161     0.062514  Biso 1.000000     N
    N   1.0     0.085840     0.834971     0.276698  Biso 1.000000     N
    N   1.0     0.567116     0.834970     0.276695  Biso 1.000000     N
   Zn   1.0     0.185404     0.257861     0.766341  Biso 1.000000    Zn
   Zn   1.0     0.666651     0.257862     0.766340  Biso 1.000000    Zn
   Zn   1.0     0.178336     0.763858     0.298867  Biso 1.000000    Zn
   Zn   1.0     0.659605     0.763859     0.298867  Biso 1.000000    Zn
   Zn   1.0     0.401350     0.767967     0.830329  Biso 1.000000    Zn
   Zn   1.0     0.882612     0.767970     0.830274  Biso 1.000000    Zn
   Zn   1.0     0.203154     0.253677     0.234768  Biso 1.000000    Zn
   Zn   1.0     0.684408     0.253677     0.234767  Biso 1.000000    Zn
   Zn   1.0     0.310137     0.509699     0.531463  Biso 1.000000    Zn
   Zn   1.0     0.791412     0.509700     0.531466  Biso 1.000000    Zn
   Zn   1.0     0.454002    -0.000018     0.000146  Biso 1.000000    Zn
   Zn   1.0     0.935267    -0.000019     0.000146  Biso 1.000000    Zn
   Br   1.0     0.280102     0.239288     0.680450  Biso 1.000000    Br
   Br   1.0     0.761342     0.239289     0.680448  Biso 1.000000    Br
   Br   1.0     0.266923     0.283511     0.841399  Biso 1.000000    Br
   Br   1.0     0.748176     0.283507     0.841398  Biso 1.000000    Br
   Br   1.0     0.203461     0.595236     0.541536  Biso 1.000000    Br
   Br   1.0     0.684715     0.595233     0.541536  Biso 1.000000    Br
   Br   1.0     0.220289     0.782930     0.384624  Biso 1.000000    Br
   Br   1.0     0.701559     0.782936     0.384622  Biso 1.000000    Br
   Br   1.0     0.309785     0.738115     0.223659  Biso 1.000000    Br
   Br   1.0     0.791061     0.738112     0.223660  Biso 1.000000    Br
   Br   1.0     0.252392     0.423962     0.521402  Biso 1.000000    Br
   Br   1.0     0.733673     0.423963     0.521404  Biso 1.000000    Br
   Br   1.0    -0.028637     0.749223     0.916112  Biso 1.000000    Br
   Br   1.0     0.452584     0.749257     0.916186  Biso 1.000000    Br
   Br   1.0     0.039326     0.793506     0.755109  Biso 1.000000    Br
   Br   1.0     0.520570     0.793502     0.755171  Biso 1.000000    Br
   Br   1.0     0.324747     0.084453     0.000000  Biso 1.000000    Br
   Br   1.0     0.806017     0.084451     0.000000  Biso 1.000000    Br
   Br   1.0     0.288597     0.272585     0.149008  Biso 1.000000    Br
   Br   1.0     0.769848     0.272583     0.149006  Biso 1.000000    Br
   Br   1.0     0.297097     0.227891     0.309896  Biso 1.000000    Br
   Br   1.0     0.778349     0.227892     0.309896  Biso 1.000000    Br
   Br   1.0     0.372492     0.934617     0.009978  Biso 1.000000    Br
   Br   1.0     0.853745     0.934619     0.009977  Biso 1.000000    Br
