#======================================================================

# CRYSTAL DATA

#----------------------------------------------------------------------

data_VESTA_phase_1


_pd_phase_name                         MOF
_cell_length_a                         19.28200
_cell_length_b                         19.28300
_cell_length_c                         29.41100
_cell_angle_alpha                      70.74200
_cell_angle_beta                       70.74000
_cell_angle_gamma                      89.99200
_symmetry_space_group_name_H-M         "P 1"
_symmetry_Int_Tables_number            1

loop_
_symmetry_equiv_pos_as_xyz
   "x, y, z"

loop_
   _atom_site_label
   _atom_site_occupancy
   _atom_site_fract_x
   _atom_site_fract_y
   _atom_site_fract_z
   _atom_site_adp_type
   _atom_site_B_iso_or_equiv
   _atom_site_type_symbol
    H   1.0     0.602639     0.118150     0.672059  Biso 1.000000     H
    H   1.0     0.562495     0.232429     0.751806  Biso 1.000000     H
    H   1.0     0.532871     0.157361     0.810736  Biso 1.000000     H
    H   1.0     0.437312     0.226153     0.859891  Biso 1.000000     H
    H   1.0     0.408619     0.267385     0.936094  Biso 1.000000     H
    H   1.0     0.176250     0.234126     0.961915  Biso 1.000000     H
    H   1.0     0.205642     0.196803     0.884718  Biso 1.000000     H
    H   1.0     0.726102     0.209846     0.672087  Biso 1.000000     H
    H   1.0     0.685491     0.015522     0.752206  Biso 1.000000     H
    H   1.0     0.655678     0.031607     0.811032  Biso 1.000000     H
    H   1.0     0.702478     0.913068     0.860579  Biso 1.000000     H
    H   1.0     0.655088     0.795497     0.937110  Biso 1.000000     H
    H   1.0     0.862193     0.803826     0.961868  Biso 1.000000     H
    H   1.0     0.909906     0.918421     0.884314  Biso 1.000000     H
    H   1.0     0.868099     0.976062     0.172188  Biso 1.000000     H
    H   1.0     0.982358     0.935652     0.251930  Biso 1.000000     H
    H   1.0     0.907304     0.905761     0.310873  Biso 1.000000     H
    H   1.0     0.975397     0.952324     0.360773  Biso 1.000000     H
    H   1.0     0.016506     0.905152     0.437079  Biso 1.000000     H
    H   1.0     0.983582     0.112408     0.461654  Biso 1.000000     H
    H   1.0     0.946455     0.159869     0.384324  Biso 1.000000     H
    H   1.0     0.959939     0.852689     0.171937  Biso 1.000000     H
    H   1.0     0.765585     0.812334     0.252128  Biso 1.000000     H
    H   1.0     0.781762     0.782801     0.310923  Biso 1.000000     H
    H   1.0     0.663442     0.687369     0.359725  Biso 1.000000     H
    H   1.0     0.545835     0.658802     0.436151  Biso 1.000000     H
    H   1.0     0.553007     0.426388     0.462086  Biso 1.000000     H
    H   1.0     0.667684     0.455691     0.384663  Biso 1.000000     H
    H   1.0     0.023934     0.131894     0.827811  Biso 1.000000     H
    H   1.0     0.064343     0.017640     0.748071  Biso 1.000000     H
    H   1.0     0.094235     0.092685     0.689125  Biso 1.000000     H
    H   1.0     0.047702     0.024602     0.639177  Biso 1.000000     H
    H   1.0     0.094854     0.983514     0.562863  Biso 1.000000     H
    H   1.0     0.887566     0.016402     0.538329  Biso 1.000000     H
    H   1.0     0.840103     0.053511     0.615664  Biso 1.000000     H
    H   1.0     0.147307     0.040051     0.828055  Biso 1.000000     H
    H   1.0     0.187670     0.234396     0.747880  Biso 1.000000     H
    H   1.0     0.217208     0.218233     0.689079  Biso 1.000000     H
    H   1.0     0.312583     0.336559     0.640231  Biso 1.000000     H
    H   1.0     0.341188     0.454150     0.563808  Biso 1.000000     H
    H   1.0     0.573601     0.446938     0.537884  Biso 1.000000     H
    H   1.0     0.544287     0.332282     0.615306  Biso 1.000000     H
    H   1.0     0.790105     0.273895     0.327904  Biso 1.000000     H
    H   1.0     0.984449     0.314493     0.247768  Biso 1.000000     H
    H   1.0     0.968344     0.344304     0.188951  Biso 1.000000     H
    H   1.0     0.086831     0.297508     0.139496  Biso 1.000000     H
    H   1.0     0.204381     0.345006     0.062943  Biso 1.000000     H
    H   1.0     0.196197     0.137940     0.038117  Biso 1.000000     H
    H   1.0     0.081617     0.090148     0.115690  Biso 1.000000     H
    H   1.0     0.881829     0.397342     0.327929  Biso 1.000000     H
    H   1.0     0.767530     0.437487     0.248192  Biso 1.000000     H
    H   1.0     0.842604     0.467105     0.189260  Biso 1.000000     H
    H   1.0     0.774054     0.562703     0.140095  Biso 1.000000     H
    H   1.0     0.732890     0.591335     0.063860  Biso 1.000000     H
    H   1.0     0.765876     0.823705     0.038106  Biso 1.000000     H
    H   1.0     0.803132     0.794340     0.115336  Biso 1.000000     H
    H   1.0     0.147357     0.131827     0.827938  Biso 1.000000     H
    H   1.0     0.187503     0.017549     0.748191  Biso 1.000000     H
    H   1.0     0.217126     0.092617     0.689261  Biso 1.000000     H
    H   1.0     0.312688     0.023823     0.640106  Biso 1.000000     H
    H   1.0     0.341379     0.982591     0.563906  Biso 1.000000     H
    H   1.0     0.573747     0.015855     0.538080  Biso 1.000000     H
    H   1.0     0.544357     0.053182     0.615275  Biso 1.000000     H
    H   1.0     0.023895     0.040129     0.827910  Biso 1.000000     H
    H   1.0     0.064504     0.234454     0.747792  Biso 1.000000     H
    H   1.0     0.094317     0.218369     0.688965  Biso 1.000000     H
    H   1.0     0.047521     0.336911     0.639408  Biso 1.000000     H
    H   1.0     0.094903     0.454478     0.562872  Biso 1.000000     H
    H   1.0     0.887790     0.446138     0.538128  Biso 1.000000     H
    H   1.0     0.840085     0.331546     0.615687  Biso 1.000000     H
    H   1.0     0.881880     0.273924     0.327804  Biso 1.000000     H
    H   1.0     0.767621     0.314336     0.248061  Biso 1.000000     H
    H   1.0     0.842676     0.344226     0.189119  Biso 1.000000     H
    H   1.0     0.774569     0.297659     0.139229  Biso 1.000000     H
    H   1.0     0.733458     0.344838     0.062924  Biso 1.000000     H
    H   1.0     0.766383     0.137583     0.038342  Biso 1.000000     H
    H   1.0     0.803517     0.090118     0.115668  Biso 1.000000     H
    H   1.0     0.790042     0.397299     0.328054  Biso 1.000000     H
    H   1.0     0.984396     0.437651     0.247864  Biso 1.000000     H
    H   1.0     0.968220     0.467185     0.189069  Biso 1.000000     H
    H   1.0     0.086538     0.562619     0.140264  Biso 1.000000     H
    H   1.0     0.204153     0.591185     0.063844  Biso 1.000000     H
    H   1.0     0.196983     0.823601     0.037914  Biso 1.000000     H
    H   1.0     0.082301     0.794296     0.115333  Biso 1.000000     H
    H   1.0     0.726062     0.118080     0.672186  Biso 1.000000     H
    H   1.0     0.685655     0.232336     0.751925  Biso 1.000000     H
    H   1.0     0.655762     0.157292     0.810871  Biso 1.000000     H
    H   1.0     0.702293     0.225376     0.860813  Biso 1.000000     H
    H   1.0     0.655135     0.266474     0.937124  Biso 1.000000     H
    H   1.0     0.862423     0.233589     0.961665  Biso 1.000000     H
    H   1.0     0.909891     0.196476     0.884332  Biso 1.000000     H
    H   1.0     0.602690     0.209926     0.671941  Biso 1.000000     H
    H   1.0     0.562325     0.015581     0.752117  Biso 1.000000     H
    H   1.0     0.532787     0.031745     0.810918  Biso 1.000000     H
    H   1.0     0.437414     0.913422     0.859760  Biso 1.000000     H
    H   1.0     0.408812     0.795827     0.936180  Biso 1.000000     H
    H   1.0     0.176397     0.803035     0.962106  Biso 1.000000     H
    H   1.0     0.205710     0.917696     0.884687  Biso 1.000000     H
    H   1.0     0.959875     0.976093     0.172088  Biso 1.000000     H
    H   1.0     0.765530     0.935492     0.252224  Biso 1.000000     H
    H   1.0     0.781636     0.905681     0.311041  Biso 1.000000     H
    H   1.0     0.663145     0.952478     0.360501  Biso 1.000000     H
    H   1.0     0.545604     0.904975     0.437062  Biso 1.000000     H
    H   1.0     0.553792     0.112039     0.461887  Biso 1.000000     H
    H   1.0     0.668366     0.159833     0.384309  Biso 1.000000     H
    H   1.0     0.868152     0.852645     0.172063  Biso 1.000000     H
    H   1.0     0.982451     0.812501     0.251799  Biso 1.000000     H
    H   1.0     0.907378     0.782883     0.310732  Biso 1.000000     H
    H   1.0     0.975913     0.687280     0.359905  Biso 1.000000     H
    H   1.0     0.017074     0.658645     0.436140  Biso 1.000000     H
    H   1.0     0.984091     0.426280     0.461890  Biso 1.000000     H
    H   1.0     0.946842     0.455646     0.384658  Biso 1.000000     H
    C   1.0     0.573974     0.177080     0.771726  Biso 1.000000     C
    C   1.0     0.340012     0.181809     0.823416  Biso 1.000000     C
    C   1.0     0.323060     0.208194     0.868169  Biso 1.000000     C
    C   1.0     0.380429     0.228291     0.882576  Biso 1.000000     C
    C   1.0     0.364610     0.250539     0.924923  Biso 1.000000     C
    C   1.0     0.290881     0.251252     0.954654  Biso 1.000000     C
    C   1.0     0.233537     0.231957     0.939876  Biso 1.000000     C
    C   1.0     0.249628     0.211339     0.896722  Biso 1.000000     C
    C   1.0     0.653994     0.051000     0.771978  Biso 1.000000     C
    C   1.0     0.836477     0.994307     0.823305  Biso 1.000000     C
    C   1.0     0.808738     0.923144     0.868288  Biso 1.000000     C
    C   1.0     0.736839     0.888365     0.883083  Biso 1.000000     C
    C   1.0     0.710361     0.823737     0.925637  Biso 1.000000     C
    C   1.0     0.754585     0.793480     0.955123  Biso 1.000000     C
    C   1.0     0.826805     0.827867     0.939986  Biso 1.000000     C
    C   1.0     0.853827     0.891653     0.896615  Biso 1.000000     C
    C   1.0     0.927036     0.904076     0.271819  Biso 1.000000     C
    C   1.0     0.931598     0.086310     0.323497  Biso 1.000000     C
    C   1.0     0.957691     0.058635     0.368396  Biso 1.000000     C
    C   1.0     0.977618     0.986753     0.383200  Biso 1.000000     C
    C   1.0     0.999752     0.960402     0.425620  Biso 1.000000     C
    C   1.0     0.000000     0.004739     0.454987  Biso 1.000000     C
    C   1.0     0.981358     0.076931     0.439871  Biso 1.000000     C
    C   1.0     0.960881     0.103804     0.396631  Biso 1.000000     C
    C   1.0     0.801057     0.823898     0.271914  Biso 1.000000     C
    C   1.0     0.744286     0.590031     0.323239  Biso 1.000000     C
    C   1.0     0.672968     0.573112     0.368044  Biso 1.000000     C
    C   1.0     0.638509     0.630509     0.382493  Biso 1.000000     C
    C   1.0     0.573805     0.614762     0.424944  Biso 1.000000     C
    C   1.0     0.543281     0.541046     0.454773  Biso 1.000000     C
    C   1.0     0.577293     0.483661     0.439958  Biso 1.000000     C
    C   1.0     0.641166     0.499698     0.396696  Biso 1.000000     C
    C   1.0     0.095923     0.072958     0.728178  Biso 1.000000     C
    C   1.0     0.913687     0.068365     0.676489  Biso 1.000000     C
    C   1.0     0.941356     0.042282     0.631579  Biso 1.000000     C
    C   1.0     0.013256     0.022384     0.616759  Biso 1.000000     C
    C   1.0     0.039595     0.000249     0.574339  Biso 1.000000     C
    C   1.0     0.995260    -0.000595     0.544969  Biso 1.000000     C
    C   1.0     0.923055     0.018619     0.560107  Biso 1.000000     C
    C   1.0     0.896178     0.039101     0.603346  Biso 1.000000     C
    C   1.0     0.176107     0.198933     0.728089  Biso 1.000000     C
    C   1.0     0.409925     0.255709     0.676747  Biso 1.000000     C
    C   1.0     0.426855     0.327012     0.631924  Biso 1.000000     C
    C   1.0     0.369455     0.361475     0.617475  Biso 1.000000     C
    C   1.0     0.385224     0.426171     0.575018  Biso 1.000000     C
    C   1.0     0.458942     0.456700     0.545189  Biso 1.000000     C
    C   1.0     0.516319     0.422669     0.560008  Biso 1.000000     C
    C   1.0     0.500279     0.358806     0.603274  Biso 1.000000     C
    C   1.0     0.948958     0.345987     0.228006  Biso 1.000000     C
    C   1.0     0.005665     0.163505     0.176720  Biso 1.000000     C
    C   1.0     0.076823     0.191285     0.131746  Biso 1.000000     C
    C   1.0     0.111566     0.263191     0.116965  Biso 1.000000     C
    C   1.0     0.176181     0.289723     0.074403  Biso 1.000000     C
    C   1.0     0.206452     0.245532     0.044892  Biso 1.000000     C
    C   1.0     0.172125     0.173295     0.060018  Biso 1.000000     C
    C   1.0     0.108352     0.146234     0.103398  Biso 1.000000     C
    C   1.0     0.822881     0.426006     0.228269  Biso 1.000000     C
    C   1.0     0.818193     0.660005     0.176612  Biso 1.000000     C
    C   1.0     0.791860     0.676940     0.131848  Biso 1.000000     C
    C   1.0     0.771867     0.619567     0.117411  Biso 1.000000     C
    C   1.0     0.749658     0.635352     0.075053  Biso 1.000000     C
    C   1.0     0.748888     0.709072     0.045345  Biso 1.000000     C
    C   1.0     0.768092     0.766433     0.060138  Biso 1.000000     C
    C   1.0     0.788668     0.750355     0.103307  Biso 1.000000     C
    C   1.0     0.176023     0.072897     0.728270  Biso 1.000000     C
    C   1.0     0.409986     0.068164     0.676583  Biso 1.000000     C
    C   1.0     0.426939     0.041797     0.631822  Biso 1.000000     C
    C   1.0     0.369569     0.021674     0.617425  Biso 1.000000     C
    C   1.0     0.385391    -0.000553     0.575069  Biso 1.000000     C
    C   1.0     0.459119    -0.001288     0.545345  Biso 1.000000     C
    C   1.0     0.516461     0.018033     0.560115  Biso 1.000000     C
    C   1.0     0.500370     0.038632     0.603277  Biso 1.000000     C
    C   1.0     0.096001     0.198976     0.728019  Biso 1.000000     C
    C   1.0     0.913527     0.255663     0.676685  Biso 1.000000     C
    C   1.0     0.941247     0.326847     0.631719  Biso 1.000000     C
    C   1.0     0.013167     0.361595     0.616894  Biso 1.000000     C
    C   1.0     0.039619     0.426253     0.574362  Biso 1.000000     C
    C   1.0     0.995411     0.456474     0.544857  Biso 1.000000     C
    C   1.0     0.923171     0.422116     0.560020  Biso 1.000000     C
    C   1.0     0.896173     0.358300     0.603370  Biso 1.000000     C
    C   1.0     0.822945     0.345912     0.228173  Biso 1.000000     C
    C   1.0     0.818372     0.163670     0.176500  Biso 1.000000     C
    C   1.0     0.792295     0.191353     0.131594  Biso 1.000000     C
    C   1.0     0.772336     0.263227     0.116806  Biso 1.000000     C
    C   1.0     0.750228     0.289593     0.074376  Biso 1.000000     C
    C   1.0     0.749360     0.245247     0.045017  Biso 1.000000     C
    C   1.0     0.768622     0.173064     0.060120  Biso 1.000000     C
    C   1.0     0.789076     0.146178     0.103369  Biso 1.000000     C
    C   1.0     0.948924     0.426088     0.228078  Biso 1.000000     C
    C   1.0     0.005697     0.659956     0.176755  Biso 1.000000     C
    C   1.0     0.077002     0.676879     0.131940  Biso 1.000000     C
    C   1.0     0.111483     0.619478     0.117508  Biso 1.000000     C
    C   1.0     0.176169     0.635224     0.075044  Biso 1.000000     C
    C   1.0     0.206715     0.708939     0.045234  Biso 1.000000     C
    C   1.0     0.172685     0.766329     0.060031  Biso 1.000000     C
    C   1.0     0.108832     0.750289     0.103307  Biso 1.000000     C
    C   1.0     0.654074     0.177019     0.771818  Biso 1.000000     C
    C   1.0     0.836309     0.181609     0.823508  Biso 1.000000     C
    C   1.0     0.808641     0.207701     0.868414  Biso 1.000000     C
    C   1.0     0.736736     0.227595     0.883232  Biso 1.000000     C
    C   1.0     0.710396     0.249738     0.925649  Biso 1.000000     C
    C   1.0     0.754729     0.250579     0.955022  Biso 1.000000     C
    C   1.0     0.826937     0.231372     0.939885  Biso 1.000000     C
    C   1.0     0.853815     0.210882     0.896649  Biso 1.000000     C
    C   1.0     0.573888     0.051044     0.771908  Biso 1.000000     C
    C   1.0     0.340071     0.994271     0.823245  Biso 1.000000     C
    C   1.0     0.323139     0.922980     0.868078  Biso 1.000000     C
    C   1.0     0.380543     0.888495     0.882507  Biso 1.000000     C
    C   1.0     0.364778     0.823820     0.924978  Biso 1.000000     C
    C   1.0     0.291061     0.793269     0.954791  Biso 1.000000     C
    C   1.0     0.233678     0.827317     0.939991  Biso 1.000000     C
    C   1.0     0.249719     0.891161     0.896711  Biso 1.000000     C
    C   1.0     0.801022     0.903999     0.271986  Biso 1.000000     C
    C   1.0     0.744318     0.086476     0.323280  Biso 1.000000     C
    C   1.0     0.673139     0.058708     0.368238  Biso 1.000000     C
    C   1.0     0.638429     0.986784     0.383047  Biso 1.000000     C
    C   1.0     0.573786     0.960271     0.425588  Biso 1.000000     C
    C   1.0     0.543550     0.004439     0.455122  Biso 1.000000     C
    C   1.0     0.577846     0.076696     0.439972  Biso 1.000000     C
    C   1.0     0.641649     0.103737     0.396613  Biso 1.000000     C
    C   1.0     0.927100     0.823982     0.271723  Biso 1.000000     C
    C   1.0     0.931796     0.589983     0.323376  Biso 1.000000     C
    C   1.0     0.958094     0.573044     0.368156  Biso 1.000000     C
    C   1.0     0.978120     0.630418     0.382579  Biso 1.000000     C
    C   1.0     0.000000     0.614628     0.424955  Biso 1.000000     C
    C   1.0     0.000000     0.540909     0.454648  Biso 1.000000     C
    C   1.0     0.981857     0.483550     0.439867  Biso 1.000000     C
    C   1.0     0.961323     0.499631     0.396680  Biso 1.000000     C
    C   1.0     0.614520     0.154429     0.691190  Biso 1.000000     C
    C   1.0     0.694859     0.154377     0.691269  Biso 1.000000     C
    C   1.0     0.904400     0.944855     0.191266  Biso 1.000000     C
    C   1.0     0.904441     0.864522     0.191190  Biso 1.000000     C
    C   1.0     0.055138     0.095598     0.808728  Biso 1.000000     C
    C   1.0     0.135477     0.095548     0.808807  Biso 1.000000     C
    C   1.0     0.845579     0.305132     0.308726  Biso 1.000000     C
    C   1.0     0.845540     0.385466     0.308802  Biso 1.000000     C
    C   1.0     0.276521     0.276182    -0.000314  Biso 1.000000     C
    C   1.0     0.723977     0.723398     0.000321  Biso 1.000000     C
    C   1.0     0.025675     0.974319     0.499978  Biso 1.000000     C
    C   1.0     0.473293     0.526696     0.499984  Biso 1.000000     C
    C   1.0     0.473460     0.973809     0.500313  Biso 1.000000     C
    C   1.0     0.025979     0.526589     0.499684  Biso 1.000000     C
    C   1.0     0.724301     0.275683     0.000016  Biso 1.000000     C
    C   1.0     0.276693     0.723297     0.000014  Biso 1.000000     C
    N   1.0     0.560562     0.127466     0.745031  Biso 1.000000     N
    N   1.0     0.694421     0.127391     0.745165  Biso 1.000000     N
    N   1.0     0.877416     0.944421     0.245160  Biso 1.000000     N
    N   1.0     0.877480     0.810573     0.245031  Biso 1.000000     N
    N   1.0     0.055576     0.122585     0.754832  Biso 1.000000     N
    N   1.0     0.189434     0.122512     0.754965  Biso 1.000000     N
    N   1.0     0.872563     0.305566     0.254832  Biso 1.000000     N
    N   1.0     0.872502     0.439413     0.254960  Biso 1.000000     N
    O   1.0     0.407054     0.172892     0.802673  Biso 1.000000     O
    O   1.0     0.286059     0.169348     0.810094  Biso 1.000000     O
    O   1.0     0.789936     0.023820     0.802840  Biso 1.000000     O
    O   1.0     0.903890     0.020321     0.809560  Biso 1.000000     O
    O   1.0     0.922584     0.039772     0.303058  Biso 1.000000     O
    O   1.0     0.919450     0.153739     0.309762  Biso 1.000000     O
    O   1.0     0.774004     0.657090     0.302462  Biso 1.000000     O
    O   1.0     0.770156     0.536079     0.309921  Biso 1.000000     O
    O   1.0     0.960223     0.077373     0.696933  Biso 1.000000     O
    O   1.0     0.846249     0.080499     0.690242  Biso 1.000000     O
    O   1.0     0.342866     0.225978     0.697523  Biso 1.000000     O
    O   1.0     0.463868     0.229846     0.690083  Biso 1.000000     O
    O   1.0     0.976117     0.210031     0.197189  Biso 1.000000     O
    O   1.0     0.979692     0.096087     0.190452  Biso 1.000000     O
    O   1.0     0.827082     0.592963     0.197367  Biso 1.000000     O
    O   1.0     0.830645     0.713969     0.189924  Biso 1.000000     O
    O   1.0     0.342944     0.077083     0.697325  Biso 1.000000     O
    O   1.0     0.463943     0.080640     0.689897  Biso 1.000000     O
    O   1.0     0.960069     0.226149     0.697150  Biso 1.000000     O
    O   1.0     0.846108     0.229658     0.690444  Biso 1.000000     O
    O   1.0     0.827359     0.210197     0.196954  Biso 1.000000     O
    O   1.0     0.830559     0.096251     0.190215  Biso 1.000000     O
    O   1.0     0.975966     0.592902     0.197516  Biso 1.000000     O
    O   1.0     0.979841     0.713902     0.190085  Biso 1.000000     O
    O   1.0     0.789771     0.172591     0.803068  Biso 1.000000     O
    O   1.0     0.903751     0.169489     0.809749  Biso 1.000000     O
    O   1.0     0.407131     0.023997     0.802468  Biso 1.000000     O
    O   1.0     0.286126     0.020137     0.809916  Biso 1.000000     O
    O   1.0     0.773846     0.039966     0.302789  Biso 1.000000     O
    O   1.0     0.770302     0.153888     0.309559  Biso 1.000000     O
    O   1.0     0.922870     0.657018     0.302640  Biso 1.000000     O
    O   1.0     0.919362     0.536023     0.310055  Biso 1.000000     O
    O   1.0     0.321858     0.321308    -0.000414  Biso 1.000000     O
    O   1.0     0.678922     0.678017     0.000395  Biso 1.000000     O
    O   1.0     0.070856     0.929124     0.499983  Biso 1.000000     O
    O   1.0     0.428117     0.571896     0.500005  Biso 1.000000     O
    O   1.0     0.428136     0.928650     0.500433  Biso 1.000000     O
    O   1.0     0.071070     0.571956     0.499587  Biso 1.000000     O
    O   1.0     0.679112     0.320870     0.000016  Biso 1.000000     O
    O   1.0     0.321872     0.678101    -0.000005  Biso 1.000000     O
   Zn   1.0     0.450323     0.126910     0.746058  Biso 1.000000    Zn
   Zn   1.0     0.803522     0.126705     0.746438  Biso 1.000000    Zn
   Zn   1.0     0.876735     0.053521     0.246419  Biso 1.000000    Zn
   Zn   1.0     0.876908     0.700336     0.246060  Biso 1.000000    Zn
   Zn   1.0     0.946477     0.123269     0.753560  Biso 1.000000    Zn
   Zn   1.0     0.299672     0.123070     0.753937  Biso 1.000000    Zn
   Zn   1.0     0.873244     0.196463     0.253574  Biso 1.000000    Zn
   Zn   1.0     0.873076     0.549650     0.253931  Biso 1.000000    Zn
