#======================================================================

# CRYSTAL DATA

#----------------------------------------------------------------------

data_VESTA_phase_1


_pd_phase_name                         MOF
_cell_length_a                         11.46000
_cell_length_b                         13.74700
_cell_length_c                         23.00100
_cell_angle_alpha                      89.71000
_cell_angle_beta                       89.11100
_cell_angle_gamma                      89.95600
_symmetry_space_group_name_H-M         "P 1"
_symmetry_Int_Tables_number            1

loop_
_symmetry_equiv_pos_as_xyz
   "x, y, z"

loop_
   _atom_site_label
   _atom_site_occupancy
   _atom_site_fract_x
   _atom_site_fract_y
   _atom_site_fract_z
   _atom_site_adp_type
   _atom_site_B_iso_or_equiv
   _atom_site_type_symbol
    H   1.0     0.233506     0.742065     0.175512  Biso 1.000000     H
    H   1.0     0.897109     0.722158     0.308405  Biso 1.000000     H
    H   1.0     0.022010     0.869252     0.301493  Biso 1.000000     H
    H   1.0     0.259419     0.125126     0.174596  Biso 1.000000     H
    H   1.0     0.621403     0.127944     0.284716  Biso 1.000000     H
    H   1.0     0.494463     0.982060     0.280055  Biso 1.000000     H
    H   1.0     0.393910     0.616501     0.075653  Biso 1.000000     H
    H   1.0     0.504266     0.533258     0.098788  Biso 1.000000     H
    H   1.0     0.647553     0.514839     0.957378  Biso 1.000000     H
    H   1.0     0.389870     0.323657     0.020792  Biso 1.000000     H
    H   1.0     0.501432     0.366480     0.067849  Biso 1.000000     H
    H   1.0     0.241233     0.560393     0.012535  Biso 1.000000     H
    H   1.0     0.224761     0.256637     0.825641  Biso 1.000000     H
    H   1.0     0.893376     0.276549     0.694740  Biso 1.000000     H
    H   1.0     0.017939     0.129496     0.700930  Biso 1.000000     H
    H   1.0     0.247772     0.874687     0.826608  Biso 1.000000     H
    H   1.0     0.618372     0.873219     0.717665  Biso 1.000000     H
    H   1.0     0.490801     0.018887     0.722604  Biso 1.000000     H
    H   1.0     0.387700     0.377894     0.920569  Biso 1.000000     H
    H   1.0     0.498643     0.459469     0.894477  Biso 1.000000     H
    H   1.0     0.649031     0.475696     0.031678  Biso 1.000000     H
    H   1.0     0.392273     0.670722     0.975477  Biso 1.000000     H
    H   1.0     0.500698     0.626413     0.925345  Biso 1.000000     H
    H   1.0     0.239208     0.436499     0.987883  Biso 1.000000     H
    H   1.0     0.764011     0.758674     0.675938  Biso 1.000000     H
    H   1.0     0.098664     0.775551     0.804674  Biso 1.000000     H
    H   1.0     0.973839     0.629001     0.799299  Biso 1.000000     H
    H   1.0     0.741702     0.376252     0.674487  Biso 1.000000     H
    H   1.0     0.372313     0.372250     0.784345  Biso 1.000000     H
    H   1.0     0.499804     0.517992     0.779530  Biso 1.000000     H
    H   1.0     0.603896     0.881834     0.579747  Biso 1.000000     H
    H   1.0     0.492916     0.964679     0.603883  Biso 1.000000     H
    H   1.0     0.347631     0.979629     0.465111  Biso 1.000000     H
    H   1.0     0.604319     0.173652     0.521078  Biso 1.000000     H
    H   1.0     0.493779     0.131157     0.570834  Biso 1.000000     H
    H   1.0     0.755234     0.937904     0.513081  Biso 1.000000     H
    H   1.0     0.768273     0.241982     0.325727  Biso 1.000000     H
    H   1.0     0.103998     0.223112     0.192376  Biso 1.000000     H
    H   1.0     0.978745     0.370069     0.198988  Biso 1.000000     H
    H   1.0     0.741758     0.623605     0.326914  Biso 1.000000     H
    H   1.0     0.380225     0.629370     0.216373  Biso 1.000000     H
    H   1.0     0.506854     0.483159     0.221057  Biso 1.000000     H
    H   1.0     0.605616     0.117530     0.421649  Biso 1.000000     H
    H   1.0     0.495209     0.034733     0.398624  Biso 1.000000     H
    H   1.0     0.346901     0.020067     0.538931  Biso 1.000000     H
    H   1.0     0.604754     0.825729     0.480253  Biso 1.000000     H
    H   1.0     0.495343     0.868479     0.431636  Biso 1.000000     H
    H   1.0     0.755561     0.061297     0.486786  Biso 1.000000     H
    C   1.0     0.157161     0.735664     0.203910  Biso 1.000000     C
    C   1.0     0.092291     0.649334     0.204761  Biso 1.000000     C
    C   1.0     0.142116     0.567915     0.169903  Biso 1.000000     C
    C   1.0    -0.005135     0.642590     0.242720  Biso 1.000000     C
    C   1.0     0.087588     0.056650     0.252598  Biso 1.000000     C
    C   1.0    -0.029860     0.723588     0.277612  Biso 1.000000     C
    C   1.0     0.040069     0.805875     0.274619  Biso 1.000000     C
    C   1.0     0.340135     0.128384     0.198769  Biso 1.000000     C
    C   1.0     0.405618     0.214338     0.199311  Biso 1.000000     C
    C   1.0     0.355137     0.300473     0.169580  Biso 1.000000     C
    C   1.0     0.509673     0.216618     0.231156  Biso 1.000000     C
    C   1.0     0.411481     0.803440     0.263530  Biso 1.000000     C
    C   1.0     0.541764     0.130497     0.259571  Biso 1.000000     C
    C   1.0     0.470907     0.048841     0.257518  Biso 1.000000     C
    C   1.0     0.448888     0.554935     0.062406  Biso 1.000000     C
    C   1.0     0.446178     0.385691     0.030932  Biso 1.000000     C
    C   1.0     0.149469     0.263065     0.797710  Biso 1.000000     C
    C   1.0     0.084484     0.349372     0.797199  Biso 1.000000     C
    C   1.0     0.133136     0.430999     0.831446  Biso 1.000000     C
    C   1.0    -0.011279     0.356294     0.759705  Biso 1.000000     C
    C   1.0     0.082227     0.943142     0.746659  Biso 1.000000     C
    C   1.0    -0.034829     0.275149     0.725135  Biso 1.000000     C
    C   1.0     0.035063     0.192813     0.727728  Biso 1.000000     C
    C   1.0     0.330391     0.871631     0.802730  Biso 1.000000     C
    C   1.0     0.396214     0.785792     0.801968  Biso 1.000000     C
    C   1.0     0.344965     0.698636     0.830946  Biso 1.000000     C
    C   1.0     0.502648     0.783886     0.770471  Biso 1.000000     C
    C   1.0     0.407583     0.197106     0.738440  Biso 1.000000     C
    C   1.0     0.536908     0.870280     0.742581  Biso 1.000000     C
    C   1.0     0.465677     0.951854     0.744781  Biso 1.000000     C
    C   1.0     0.444504     0.438637     0.932309  Biso 1.000000     C
    C   1.0     0.446887     0.607933     0.963760  Biso 1.000000     C
    C   1.0     0.839998     0.764467     0.703402  Biso 1.000000     C
    C   1.0     0.905266     0.850635     0.703336  Biso 1.000000     C
    C   1.0     0.856476     0.932718     0.668851  Biso 1.000000     C
    C   1.0     0.000000     0.856691     0.740237  Biso 1.000000     C
    C   1.0     0.908816     0.443102     0.753219  Biso 1.000000     C
    C   1.0     0.000000     0.774883     0.774690  Biso 1.000000     C
    C   1.0     0.956087     0.692790     0.772605  Biso 1.000000     C
    C   1.0     0.659409     0.372675     0.698631  Biso 1.000000     C
    C   1.0     0.593505     0.286912     0.699172  Biso 1.000000     C
    C   1.0     0.644681     0.200811     0.669477  Biso 1.000000     C
    C   1.0     0.487549     0.284114     0.731101  Biso 1.000000     C
    C   1.0     0.582633     0.696936     0.763534  Biso 1.000000     C
    C   1.0     0.453623     0.369906     0.759296  Biso 1.000000     C
    C   1.0     0.524833     0.451434     0.757214  Biso 1.000000     C
    C   1.0     0.548120     0.942765     0.566764  Biso 1.000000     C
    C   1.0     0.548708     0.111510     0.533134  Biso 1.000000     C
    C   1.0     0.844444     0.235800     0.297225  Biso 1.000000     C
    C   1.0     0.909394     0.149484     0.296454  Biso 1.000000     C
    C   1.0     0.859652     0.067542     0.331261  Biso 1.000000     C
    C   1.0     0.000000     0.142955     0.258387  Biso 1.000000     C
    C   1.0     0.913705     0.556452     0.249133  Biso 1.000000     C
    C   1.0     0.000000     0.224194     0.223214  Biso 1.000000     C
    C   1.0     0.960937     0.306474     0.226076  Biso 1.000000     C
    C   1.0     0.661068     0.627563     0.302716  Biso 1.000000     C
    C   1.0     0.595731     0.713697     0.302149  Biso 1.000000     C
    C   1.0     0.646334     0.799523     0.331653  Biso 1.000000     C
    C   1.0     0.491735     0.716724     0.270224  Biso 1.000000     C
    C   1.0     0.589631     0.303255     0.237968  Biso 1.000000     C
    C   1.0     0.459657     0.631255     0.241679  Biso 1.000000     C
    C   1.0     0.530375     0.549408     0.243740  Biso 1.000000     C
    C   1.0     0.549590     0.056644     0.435185  Biso 1.000000     C
    C   1.0     0.549466     0.887994     0.468792  Biso 1.000000     C
    C   1.0     0.592699     0.495695    -0.004685  Biso 1.000000     C
    C   1.0     0.295368     0.497974    -0.000545  Biso 1.000000     C
    C   1.0     0.402857    -0.000182     0.501727  Biso 1.000000     C
    C   1.0     0.700254    -0.000343     0.500215  Biso 1.000000     C
    N   1.0     0.369501     0.047700     0.228278  Biso 1.000000     N
    N   1.0     0.133620     0.811949     0.238309  Biso 1.000000     N
    N   1.0     0.369251     0.469730     0.049357  Biso 1.000000     N
    N   1.0     0.521136     0.580626     0.012084  Biso 1.000000     N
    N   1.0     0.361965     0.952635     0.773605  Biso 1.000000     N
    N   1.0     0.127485     0.186865     0.763362  Biso 1.000000     N
    N   1.0     0.367390     0.525034     0.947516  Biso 1.000000     N
    N   1.0     0.518641     0.411817     0.980600  Biso 1.000000     N
    N   1.0     0.628362     0.452855     0.728244  Biso 1.000000     N
    N   1.0     0.862634     0.687623     0.737629  Biso 1.000000     N
    N   1.0     0.626709     0.028333     0.551185  Biso 1.000000     N
    N   1.0     0.475523     0.915671     0.518143  Biso 1.000000     N
    N   1.0     0.631622     0.547482     0.273108  Biso 1.000000     N
    N   1.0     0.867648     0.312340     0.262535  Biso 1.000000     N
    N   1.0     0.627847     0.971048     0.450004  Biso 1.000000     N
    N   1.0     0.475871     0.083861     0.484542  Biso 1.000000     N
    O   1.0     0.222972     0.588469     0.132097  Biso 1.000000     O
    O   1.0     0.115355     0.479591     0.179610  Biso 1.000000     O
    O   1.0     0.140137     0.024873     0.297430  Biso 1.000000     O
    O   1.0     0.106810     0.024943     0.201799  Biso 1.000000     O
    O   1.0     0.274347     0.288656     0.132221  Biso 1.000000     O
    O   1.0     0.389073     0.386244     0.182422  Biso 1.000000     O
    O   1.0     0.391420     0.829452     0.211502  Biso 1.000000     O
    O   1.0     0.361531     0.841568     0.307509  Biso 1.000000     O
    O   1.0     0.210455     0.410033     0.869970  Biso 1.000000     O
    O   1.0     0.109621     0.519237     0.820399  Biso 1.000000     O
    O   1.0     0.139836     0.974909     0.702500  Biso 1.000000     O
    O   1.0     0.095534     0.974719     0.797643  Biso 1.000000     O
    O   1.0     0.264904     0.708282     0.870048  Biso 1.000000     O
    O   1.0     0.378750     0.613651     0.815564  Biso 1.000000     O
    O   1.0     0.385722     0.171241     0.790508  Biso 1.000000     O
    O   1.0     0.359695     0.158446     0.694714  Biso 1.000000     O
    O   1.0     0.774917     0.912573     0.632563  Biso 1.000000     O
    O   1.0     0.884584     0.020632     0.677344  Biso 1.000000     O
    O   1.0     0.852770     0.474948     0.797774  Biso 1.000000     O
    O   1.0     0.894195     0.475008     0.702295  Biso 1.000000     O
    O   1.0     0.724504     0.211885     0.630322  Biso 1.000000     O
    O   1.0     0.611283     0.115268     0.684376  Biso 1.000000     O
    O   1.0     0.604673     0.671225     0.711619  Biso 1.000000     O
    O   1.0     0.630456     0.658139     0.807516  Biso 1.000000     O
    O   1.0     0.780403     0.087692     0.369884  Biso 1.000000     O
    O   1.0     0.884508     0.979312     0.320528  Biso 1.000000     O
    O   1.0     0.860453     0.525181     0.204499  Biso 1.000000     O
    O   1.0     0.894969     0.524696     0.300054  Biso 1.000000     O
    O   1.0     0.725284     0.787674     0.369993  Biso 1.000000     O
    O   1.0     0.614143     0.885445     0.317371  Biso 1.000000     O
    O   1.0     0.609048     0.328828     0.289940  Biso 1.000000     O
    O   1.0     0.639979     0.341845     0.193992  Biso 1.000000     O
   Zn   1.0     0.250460     0.930074     0.245273  Biso 1.000000    Zn
   Zn   1.0     0.265619     0.441798     0.125041  Biso 1.000000    Zn
   Zn   1.0     0.245138     0.069688     0.754791  Biso 1.000000    Zn
   Zn   1.0     0.259781     0.554323     0.875069  Biso 1.000000    Zn
   Zn   1.0     0.745109     0.570025     0.747271  Biso 1.000000    Zn
   Zn   1.0     0.730584     0.057895     0.624803  Biso 1.000000    Zn
   Zn   1.0     0.749922     0.430097     0.254990  Biso 1.000000    Zn
   Zn   1.0     0.734378     0.941472     0.375326  Biso 1.000000    Zn
