#======================================================================

# CRYSTAL DATA

#----------------------------------------------------------------------

data_VESTA_phase_1


_pd_phase_name                         MOF
_cell_length_a                         13.24800
_cell_length_b                         14.54400
_cell_length_c                         18.12400
_cell_angle_alpha                      90.02000
_cell_angle_beta                       89.85800
_cell_angle_gamma                      90.00300
_symmetry_space_group_name_H-M         "P 1"
_symmetry_Int_Tables_number            1

loop_
_symmetry_equiv_pos_as_xyz
   "x, y, z"

loop_
   _atom_site_label
   _atom_site_occupancy
   _atom_site_fract_x
   _atom_site_fract_y
   _atom_site_fract_z
   _atom_site_adp_type
   _atom_site_B_iso_or_equiv
   _atom_site_type_symbol
    H   1.0     0.777679     0.158304     0.716272  Biso 1.000000     H
    H   1.0     0.904036     0.050525     0.768677  Biso 1.000000     H
    H   1.0     0.123442     0.254713     0.772508  Biso 1.000000     H
    H   1.0     0.431548     0.960324    -0.008277  Biso 1.000000     H
    H   1.0     0.413527     0.873998     0.060402  Biso 1.000000     H
    H   1.0     0.306086     0.079252     0.972880  Biso 1.000000     H
    H   1.0     0.335547     0.961017     0.882996  Biso 1.000000     H
    H   1.0     0.242700     0.873829     0.866662  Biso 1.000000     H
    H   1.0     0.213765     0.756643     0.958312  Biso 1.000000     H
    H   1.0     0.722263     0.158134     0.283372  Biso 1.000000     H
    H   1.0     0.595969     0.050365     0.230934  Biso 1.000000     H
    H   1.0     0.376790     0.254809     0.226468  Biso 1.000000     H
    H   1.0     0.068378     0.960536     0.000000  Biso 1.000000     H
    H   1.0     0.086197     0.874269     0.939617  Biso 1.000000     H
    H   1.0     0.194005     0.079332     0.027414  Biso 1.000000     H
    H   1.0     0.164315     0.960892     0.117164  Biso 1.000000     H
    H   1.0     0.257119     0.873581     0.133328  Biso 1.000000     H
    H   1.0     0.285840     0.756523     0.041488  Biso 1.000000     H
    H   1.0     0.723032     0.658865     0.215902  Biso 1.000000     H
    H   1.0     0.596794     0.550868     0.268726  Biso 1.000000     H
    H   1.0     0.376828     0.754599     0.272787  Biso 1.000000     H
    H   1.0     0.068704     0.460697     0.492141  Biso 1.000000     H
    H   1.0     0.086568     0.374367     0.560780  Biso 1.000000     H
    H   1.0     0.194313     0.579500     0.472762  Biso 1.000000     H
    H   1.0     0.164513     0.461136     0.383019  Biso 1.000000     H
    H   1.0     0.257288     0.373832     0.366371  Biso 1.000000     H
    H   1.0     0.286082     0.256699     0.457971  Biso 1.000000     H
    H   1.0     0.777595     0.658434     0.783354  Biso 1.000000     H
    H   1.0     0.904251     0.550750     0.730619  Biso 1.000000     H
    H   1.0     0.123848     0.754793     0.727367  Biso 1.000000     H
    H   1.0     0.431876     0.460396     0.507340  Biso 1.000000     H
    H   1.0     0.413759     0.374120     0.438666  Biso 1.000000     H
    H   1.0     0.306415     0.579435     0.526848  Biso 1.000000     H
    H   1.0     0.336050     0.461016     0.616477  Biso 1.000000     H
    H   1.0     0.243147     0.373854     0.633122  Biso 1.000000     H
    H   1.0     0.214068     0.256733     0.541424  Biso 1.000000     H
    H   1.0     0.276997     0.341167     0.784099  Biso 1.000000     H
    H   1.0     0.403236     0.449164     0.731275  Biso 1.000000     H
    H   1.0     0.623200     0.245433     0.727212  Biso 1.000000     H
    H   1.0     0.931328     0.539321     0.507860  Biso 1.000000     H
    H   1.0     0.913473     0.625656     0.439224  Biso 1.000000     H
    H   1.0     0.805709     0.420526     0.527234  Biso 1.000000     H
    H   1.0     0.835519     0.538885     0.616982  Biso 1.000000     H
    H   1.0     0.742751     0.626194     0.633631  Biso 1.000000     H
    H   1.0     0.713969     0.743334     0.542034  Biso 1.000000     H
    H   1.0     0.222434     0.341596     0.216647  Biso 1.000000     H
    H   1.0     0.095778     0.449281     0.269383  Biso 1.000000     H
    H   1.0     0.876182     0.245238     0.272633  Biso 1.000000     H
    H   1.0     0.568156     0.539650     0.492660  Biso 1.000000     H
    H   1.0     0.586282     0.625921     0.561337  Biso 1.000000     H
    H   1.0     0.693607     0.420602     0.473148  Biso 1.000000     H
    H   1.0     0.663983     0.539027     0.383523  Biso 1.000000     H
    H   1.0     0.756893     0.626183     0.366881  Biso 1.000000     H
    H   1.0     0.785983     0.743298     0.458582  Biso 1.000000     H
    H   1.0     0.222350     0.841728     0.283725  Biso 1.000000     H
    H   1.0     0.095993     0.949506     0.231320  Biso 1.000000     H
    H   1.0     0.876588     0.745318     0.227489  Biso 1.000000     H
    H   1.0     0.568481     0.039712     0.000000  Biso 1.000000     H
    H   1.0     0.586505     0.126037     0.939594  Biso 1.000000     H
    H   1.0     0.693941     0.920782     0.027119  Biso 1.000000     H
    H   1.0     0.664481     0.039017     0.117001  Biso 1.000000     H
    H   1.0     0.757330     0.126204     0.133335  Biso 1.000000     H
    H   1.0     0.786268     0.243389     0.041684  Biso 1.000000     H
    H   1.0     0.277767     0.841898     0.716626  Biso 1.000000     H
    H   1.0     0.404061     0.949667     0.769062  Biso 1.000000     H
    H   1.0     0.623240     0.745224     0.773528  Biso 1.000000     H
    H   1.0     0.931652     0.039493    -0.008458  Biso 1.000000     H
    H   1.0     0.913834     0.125761     0.060381  Biso 1.000000     H
    H   1.0     0.806022     0.920698     0.972584  Biso 1.000000     H
    H   1.0     0.835716     0.039137     0.882834  Biso 1.000000     H
    H   1.0     0.742913     0.126450     0.866669  Biso 1.000000     H
    H   1.0     0.714194     0.243509     0.958508  Biso 1.000000     H
    C   1.0     0.026452     0.889986     0.797595  Biso 1.000000     C
    C   1.0     0.982587     0.799400     0.773800  Biso 1.000000     C
    C   1.0     0.881534     0.773849     0.786491  Biso 1.000000     C
    C   1.0     0.799486     0.339849     0.690825  Biso 1.000000     C
    C   1.0     0.853953     0.682606     0.772066  Biso 1.000000     C
    C   1.0     0.923853     0.622137     0.741903  Biso 1.000000     C
    C   1.0     0.046590     0.234993     0.758739  Biso 1.000000     C
    C   1.0     0.124375     0.916294     0.981222  Biso 1.000000     C
    C   1.0     0.220738     0.916103     0.091051  Biso 1.000000     C
    C   1.0     0.473409     0.889847     0.202209  Biso 1.000000     C
    C   1.0     0.517759     0.799417     0.225926  Biso 1.000000     C
    C   1.0     0.618829     0.774087     0.212995  Biso 1.000000     C
    C   1.0     0.700503     0.339660     0.309089  Biso 1.000000     C
    C   1.0     0.646653     0.682883     0.227325  Biso 1.000000     C
    C   1.0     0.576981     0.622232     0.257556  Biso 1.000000     C
    C   1.0     0.453577     0.235040     0.240376  Biso 1.000000     C
    C   1.0     0.375439     0.916123     0.018853  Biso 1.000000     C
    C   1.0     0.279083     0.916230     0.909037  Biso 1.000000     C
    C   1.0     0.473509     0.389885     0.297053  Biso 1.000000     C
    C   1.0     0.517620     0.299339     0.273219  Biso 1.000000     C
    C   1.0     0.618525     0.273749     0.286083  Biso 1.000000     C
    C   1.0     0.700723     0.840468     0.190393  Biso 1.000000     C
    C   1.0     0.646068     0.182398     0.271906  Biso 1.000000     C
    C   1.0     0.576326     0.121850     0.241881  Biso 1.000000     C
    C   1.0     0.453769     0.735020     0.258873  Biso 1.000000     C
    C   1.0     0.375722     0.416230     0.480405  Biso 1.000000     C
    C   1.0     0.279512     0.416264     0.590636  Biso 1.000000     C
    C   1.0     0.026597     0.389968     0.702385  Biso 1.000000     C
    C   1.0     0.982535     0.299334     0.726039  Biso 1.000000     C
    C   1.0     0.881564     0.273777     0.713301  Biso 1.000000     C
    C   1.0     0.799456     0.839936     0.809193  Biso 1.000000     C
    C   1.0     0.853969     0.182474     0.727549  Biso 1.000000     C
    C   1.0     0.923726     0.121938     0.757539  Biso 1.000000     C
    C   1.0     0.046841     0.735119     0.740982  Biso 1.000000     C
    C   1.0     0.124725     0.416413     0.519077  Biso 1.000000     C
    C   1.0     0.220955     0.416312     0.408848  Biso 1.000000     C
    C   1.0     0.249978     0.035338     0.000111  Biso 1.000000     C
    C   1.0     0.249828     0.800581    -0.000061  Biso 1.000000     C
    C   1.0     0.250334     0.535509     0.499790  Biso 1.000000     C
    C   1.0     0.250110     0.300725     0.499716  Biso 1.000000     C
    C   1.0     0.526521     0.610146     0.702946  Biso 1.000000     C
    C   1.0     0.482410     0.700693     0.726779  Biso 1.000000     C
    C   1.0     0.381504     0.726283     0.713915  Biso 1.000000     C
    C   1.0     0.299306     0.159564     0.809606  Biso 1.000000     C
    C   1.0     0.353962     0.817634     0.728091  Biso 1.000000     C
    C   1.0     0.423703     0.878183     0.758116  Biso 1.000000     C
    C   1.0     0.546260     0.265012     0.741126  Biso 1.000000     C
    C   1.0     0.624315     0.583810     0.519596  Biso 1.000000     C
    C   1.0     0.720525     0.583774     0.409365  Biso 1.000000     C
    C   1.0     0.973433     0.610064     0.297613  Biso 1.000000     C
    C   1.0     0.017495     0.700698     0.273959  Biso 1.000000     C
    C   1.0     0.118465     0.726255     0.286697  Biso 1.000000     C
    C   1.0     0.200571     0.160093     0.190805  Biso 1.000000     C
    C   1.0     0.146060     0.817557     0.272448  Biso 1.000000     C
    C   1.0     0.076303     0.878093     0.242458  Biso 1.000000     C
    C   1.0     0.953189     0.264912     0.259019  Biso 1.000000     C
    C   1.0     0.875312     0.583611     0.480925  Biso 1.000000     C
    C   1.0     0.779081     0.583714     0.591153  Biso 1.000000     C
    C   1.0     0.973579     0.110043     0.202406  Biso 1.000000     C
    C   1.0     0.017442     0.200631     0.226199  Biso 1.000000     C
    C   1.0     0.118495     0.226182     0.213509  Biso 1.000000     C
    C   1.0     0.200543     0.660183     0.309174  Biso 1.000000     C
    C   1.0     0.146077     0.317425     0.227935  Biso 1.000000     C
    C   1.0     0.076177     0.377893     0.258099  Biso 1.000000     C
    C   1.0     0.953439     0.765039     0.241258  Biso 1.000000     C
    C   1.0     0.875655     0.083737     0.018776  Biso 1.000000     C
    C   1.0     0.779293     0.083927     0.908946  Biso 1.000000     C
    C   1.0     0.526620     0.110185     0.797789  Biso 1.000000     C
    C   1.0     0.482271     0.200615     0.774073  Biso 1.000000     C
    C   1.0     0.381200     0.225944     0.787004  Biso 1.000000     C
    C   1.0     0.299526     0.660372     0.690910  Biso 1.000000     C
    C   1.0     0.353377     0.317149     0.772675  Biso 1.000000     C
    C   1.0     0.423048     0.377800     0.742444  Biso 1.000000     C
    C   1.0     0.546453     0.764992     0.759621  Biso 1.000000     C
    C   1.0     0.624591     0.083912     0.981143  Biso 1.000000     C
    C   1.0     0.720947     0.083804     0.090960  Biso 1.000000     C
    C   1.0     0.749692     0.464523     0.500208  Biso 1.000000     C
    C   1.0     0.749936     0.699307     0.500289  Biso 1.000000     C
    C   1.0     0.750051     0.964684    -0.000113  Biso 1.000000     C
    C   1.0     0.750206     0.199441     0.000058  Biso 1.000000     C
    N   1.0     0.018634     0.648720     0.724053  Biso 1.000000     N
    N   1.0     0.199711     0.977071     0.943126  Biso 1.000000     N
    N   1.0     0.172120     0.857591     0.036315  Biso 1.000000     N
    N   1.0     0.482173     0.648626     0.275620  Biso 1.000000     N
    N   1.0     0.300150     0.976933     0.057038  Biso 1.000000     N
    N   1.0     0.327612     0.857583     0.963678  Biso 1.000000     N
    N   1.0     0.481739     0.148499     0.223770  Biso 1.000000     N
    N   1.0     0.300411     0.477094     0.442615  Biso 1.000000     N
    N   1.0     0.327962     0.357654     0.535730  Biso 1.000000     N
    N   1.0     0.018377     0.148503     0.775456  Biso 1.000000     N
    N   1.0     0.200127     0.477169     0.556932  Biso 1.000000     N
    N   1.0     0.172385     0.357775     0.463721  Biso 1.000000     N
    N   1.0     0.518291     0.851533     0.776227  Biso 1.000000     N
    N   1.0     0.699620     0.522938     0.557384  Biso 1.000000     N
    N   1.0     0.672080     0.642384     0.464273  Biso 1.000000     N
    N   1.0     0.981652     0.851528     0.224541  Biso 1.000000     N
    N   1.0     0.799904     0.522862     0.443068  Biso 1.000000     N
    N   1.0     0.827657     0.642249     0.536283  Biso 1.000000     N
    N   1.0     0.981396     0.351311     0.275949  Biso 1.000000     N
    N   1.0     0.800318     0.022961     0.056872  Biso 1.000000     N
    N   1.0     0.827912     0.142440     0.963683  Biso 1.000000     N
    N   1.0     0.517856     0.351406     0.724380  Biso 1.000000     N
    N   1.0     0.699880     0.023100     0.942959  Biso 1.000000     N
    N   1.0     0.672419     0.142451     0.036319  Biso 1.000000     N
    O   1.0     0.113973     0.910785     0.772194  Biso 1.000000     O
    O   1.0     0.979367     0.439197     0.656231  Biso 1.000000     O
    O   1.0     0.746698     0.320556     0.634573  Biso 1.000000     O
    O   1.0     0.781836     0.406908     0.734172  Biso 1.000000     O
    O   1.0     0.386274     0.910700     0.228230  Biso 1.000000     O
    O   1.0     0.520492     0.438918     0.343507  Biso 1.000000     O
    O   1.0     0.751820     0.320588     0.366031  Biso 1.000000     O
    O   1.0     0.719544     0.406363     0.265674  Biso 1.000000     O
    O   1.0     0.386207     0.410705     0.271621  Biso 1.000000     O
    O   1.0     0.520049     0.938682     0.155305  Biso 1.000000     O
    O   1.0     0.755198     0.820380     0.134937  Biso 1.000000     O
    O   1.0     0.716474     0.908785     0.232769  Biso 1.000000     O
    O   1.0     0.114020     0.410661     0.727736  Biso 1.000000     O
    O   1.0     0.978969     0.939090     0.843905  Biso 1.000000     O
    O   1.0     0.746552     0.820609     0.865544  Biso 1.000000     O
    O   1.0     0.781898     0.906975     0.765903  Biso 1.000000     O
    O   1.0     0.613822     0.589327     0.728377  Biso 1.000000     O
    O   1.0     0.479981     0.061349     0.844694  Biso 1.000000     O
    O   1.0     0.244831     0.179652     0.865062  Biso 1.000000     O
    O   1.0     0.283555     0.091248     0.767229  Biso 1.000000     O
    O   1.0     0.886010     0.589370     0.272263  Biso 1.000000     O
    O   1.0     0.021059     0.060942     0.156093  Biso 1.000000     O
    O   1.0     0.253478     0.179424     0.134456  Biso 1.000000     O
    O   1.0     0.218132     0.093056     0.234096  Biso 1.000000     O
    O   1.0     0.886054     0.089248     0.227804  Biso 1.000000     O
    O   1.0     0.020663     0.560835     0.343768  Biso 1.000000     O
    O   1.0     0.253330     0.679476     0.365426  Biso 1.000000     O
    O   1.0     0.218194     0.593124     0.265827  Biso 1.000000     O
    O   1.0     0.613756     0.089332     0.771769  Biso 1.000000     O
    O   1.0     0.479538     0.561114     0.656492  Biso 1.000000     O
    O   1.0     0.248209     0.679443     0.633968  Biso 1.000000     O
    O   1.0     0.280486     0.593669     0.734325  Biso 1.000000     O
   Cd   1.0     0.133568     0.550934     0.667502  Biso 1.000000    Cd
   Cd   1.0     0.366783     0.550926     0.331959  Biso 1.000000    Cd
   Cd   1.0     0.366701     0.050687     0.167542  Biso 1.000000    Cd
   Cd   1.0     0.132903     0.050845     0.832623  Biso 1.000000    Cd
   Cd   1.0     0.633328     0.949345     0.832456  Biso 1.000000    Cd
   Cd   1.0     0.867125     0.949187     0.167376  Biso 1.000000    Cd
   Cd   1.0     0.866460     0.449098     0.332497  Biso 1.000000    Cd
   Cd   1.0     0.633245     0.449105     0.668039  Biso 1.000000    Cd
