#======================================================================

# CRYSTAL DATA

#----------------------------------------------------------------------

data_VESTA_phase_1


_pd_phase_name                         MOF
_cell_length_a                         13.18200
_cell_length_b                         13.88400
_cell_length_c                         25.25500
_cell_angle_alpha                      90.03300
_cell_angle_beta                       89.88000
_cell_angle_gamma                      90.03000
_symmetry_space_group_name_H-M         "P 1"
_symmetry_Int_Tables_number            1

loop_
_symmetry_equiv_pos_as_xyz
   "x, y, z"

loop_
   _atom_site_label
   _atom_site_occupancy
   _atom_site_fract_x
   _atom_site_fract_y
   _atom_site_fract_z
   _atom_site_adp_type
   _atom_site_B_iso_or_equiv
   _atom_site_type_symbol
    H   1.0     0.794115     0.984566     0.741657  Biso 1.000000     H
    H   1.0     0.032675     0.802549     0.780492  Biso 1.000000     H
    H   1.0     0.658607     0.085284     0.759745  Biso 1.000000     H
    H   1.0     0.742354    -0.055100     0.919779  Biso 1.000000     H
    H   1.0     0.824121     0.034369     0.993896  Biso 1.000000     H
    H   1.0     0.104962     0.891465     0.952337  Biso 1.000000     H
    H   1.0     0.000000     0.800636     0.883874  Biso 1.000000     H
    H   1.0     0.207025     0.516988     0.239834  Biso 1.000000     H
    H   1.0     0.967185     0.694371     0.283348  Biso 1.000000     H
    H   1.0     0.341461     0.417773     0.252803  Biso 1.000000     H
    H   1.0     0.224604     0.510197     0.391747  Biso 1.000000     H
    H   1.0     0.137414     0.414295     0.461622  Biso 1.000000     H
    H   1.0     0.930208     0.653311     0.481440  Biso 1.000000     H
    H   1.0     0.021621     0.735526     0.407400  Biso 1.000000     H
    H   1.0     0.293952     0.015678     0.759172  Biso 1.000000     H
    H   1.0     0.533522     0.197732     0.721202  Biso 1.000000     H
    H   1.0     0.158754     0.915068     0.742593  Biso 1.000000     H
    H   1.0     0.242292     0.000000     0.581332  Biso 1.000000     H
    H   1.0     0.323305     0.965667     0.506894  Biso 1.000000     H
    H   1.0     0.605258     0.106640     0.547984  Biso 1.000000     H
    H   1.0     0.509299     0.197857     0.616764  Biso 1.000000     H
    H   1.0     0.706990     0.481846     0.260020  Biso 1.000000     H
    H   1.0     0.467765     0.304851     0.215421  Biso 1.000000     H
    H   1.0     0.841591     0.581531     0.245460  Biso 1.000000     H
    H   1.0     0.724821     0.488954     0.107212  Biso 1.000000     H
    H   1.0     0.637296     0.584540     0.037580  Biso 1.000000     H
    H   1.0     0.430191     0.345158     0.018602  Biso 1.000000     H
    H   1.0     0.521746     0.263353     0.092461  Biso 1.000000     H
    H   1.0     0.207229     0.017242     0.259836  Biso 1.000000     H
    H   1.0     0.967446     0.193583     0.215716  Biso 1.000000     H
    H   1.0     0.341178     0.917545     0.246202  Biso 1.000000     H
    H   1.0     0.225675     0.000000     0.107436  Biso 1.000000     H
    H   1.0     0.137709     0.913959     0.038010  Biso 1.000000     H
    H   1.0     0.930738     0.153250     0.019017  Biso 1.000000     H
    H   1.0     0.022683     0.235445     0.092706  Biso 1.000000     H
    H   1.0     0.793630     0.484259     0.759345  Biso 1.000000     H
    H   1.0     0.033267     0.302926     0.720603  Biso 1.000000     H
    H   1.0     0.658970     0.584901     0.740806  Biso 1.000000     H
    H   1.0     0.742651     0.443976     0.581136  Biso 1.000000     H
    H   1.0     0.823772     0.533549     0.506726  Biso 1.000000     H
    H   1.0     0.105638     0.392786     0.547814  Biso 1.000000     H
    H   1.0     0.000000     0.301886     0.616714  Biso 1.000000     H
    H   1.0     0.706604     0.982631     0.240308  Biso 1.000000     H
    H   1.0     0.466904     0.805182     0.284121  Biso 1.000000     H
    H   1.0     0.841675     0.080858     0.253769  Biso 1.000000     H
    H   1.0     0.724789    -0.011103     0.392325  Biso 1.000000     H
    H   1.0     0.637349     0.084833     0.462089  Biso 1.000000     H
    H   1.0     0.429511     0.846001     0.481357  Biso 1.000000     H
    H   1.0     0.521117     0.763781     0.407362  Biso 1.000000     H
    H   1.0     0.294106     0.516400     0.741138  Biso 1.000000     H
    H   1.0     0.533873     0.698048     0.778944  Biso 1.000000     H
    H   1.0     0.158547     0.415861     0.758567  Biso 1.000000     H
    H   1.0     0.242691     0.553586     0.918728  Biso 1.000000     H
    H   1.0     0.323813     0.464106     0.992997  Biso 1.000000     H
    H   1.0     0.605296     0.606301     0.951788  Biso 1.000000     H
    H   1.0     0.509292     0.696999     0.883111  Biso 1.000000     H
    C   1.0     0.624373     0.909182     0.800851  Biso 1.000000     C
    C   1.0     0.544599     0.978925     0.782188  Biso 1.000000     C
    C   1.0     0.439553     0.960826     0.782805  Biso 1.000000     C
    C   1.0     0.395650     0.869904     0.805295  Biso 1.000000     C
    C   1.0     0.875523     0.971679     0.741598  Biso 1.000000     C
    C   1.0     0.008777     0.870716     0.763205  Biso 1.000000     C
    C   1.0     0.578376     0.066364     0.760681  Biso 1.000000     C
    C   1.0     0.821978     0.933936     0.929461  Biso 1.000000     C
    C   1.0     0.869052    -0.015016     0.969908  Biso 1.000000     C
    C   1.0     0.972819     0.971483     0.979668  Biso 1.000000     C
    C   1.0     0.023941     0.904230     0.947769  Biso 1.000000     C
    C   1.0     0.971369     0.854458     0.908731  Biso 1.000000     C
    C   1.0     0.375494     0.592569     0.296074  Biso 1.000000     C
    C   1.0     0.455317     0.521852     0.278434  Biso 1.000000     C
    C   1.0     0.560472     0.538634     0.281070  Biso 1.000000     C
    C   1.0     0.603890     0.628624     0.304943  Biso 1.000000     C
    C   1.0     0.125453     0.528706     0.240778  Biso 1.000000     C
    C   1.0     0.991514     0.627258     0.264883  Biso 1.000000     C
    C   1.0     0.421831     0.435578     0.255483  Biso 1.000000     C
    C   1.0     0.158434     0.538334     0.412508  Biso 1.000000     C
    C   1.0     0.110053     0.486224     0.452116  Biso 1.000000     C
    C   1.0     0.025746     0.525587     0.478286  Biso 1.000000     C
    C   1.0     0.993958     0.617571     0.462212  Biso 1.000000     C
    C   1.0     0.045350     0.664946     0.421686  Biso 1.000000     C
    C   1.0     0.125678     0.091036     0.701252  Biso 1.000000     C
    C   1.0     0.045368     0.021396     0.719649  Biso 1.000000     C
    C   1.0     0.940329     0.039498     0.718648  Biso 1.000000     C
    C   1.0     0.896937     0.130348     0.695944  Biso 1.000000     C
    C   1.0     0.375356     0.028582     0.759567  Biso 1.000000     C
    C   1.0     0.509137     0.129576     0.738429  Biso 1.000000     C
    C   1.0     0.078572     0.933975     0.741286  Biso 1.000000     C
    C   1.0     0.321994     0.065869     0.571471  Biso 1.000000     C
    C   1.0     0.368629     0.000000     0.530846  Biso 1.000000     C
    C   1.0     0.472492     0.027584     0.520856  Biso 1.000000     C
    C   1.0     0.524136     0.094381     0.552731  Biso 1.000000     C
    C   1.0     0.472001     0.144338     0.591944  Biso 1.000000     C
    C   1.0     0.875883     0.407216     0.201855  Biso 1.000000     C
    C   1.0     0.955723     0.477290     0.220266  Biso 1.000000     C
    C   1.0     0.060948     0.460333     0.218208  Biso 1.000000     C
    C   1.0     0.105268     0.370228     0.194888  Biso 1.000000     C
    C   1.0     0.625390     0.470326     0.258707  Biso 1.000000     C
    C   1.0     0.491758     0.371936     0.234007  Biso 1.000000     C
    C   1.0     0.921977     0.563621     0.243126  Biso 1.000000     C
    C   1.0     0.658524     0.460694     0.086731  Biso 1.000000     C
    C   1.0     0.609969     0.512609     0.047230  Biso 1.000000     C
    C   1.0     0.525617     0.473052     0.021327  Biso 1.000000     C
    C   1.0     0.493963     0.381080     0.037602  Biso 1.000000     C
    C   1.0     0.545436     0.333905     0.078030  Biso 1.000000     C
    C   1.0     0.375703     0.091677     0.201877  Biso 1.000000     C
    C   1.0     0.455230     0.021785     0.220739  Biso 1.000000     C
    C   1.0     0.560400     0.038818     0.218614  Biso 1.000000     C
    C   1.0     0.604102     0.128801     0.194897  Biso 1.000000     C
    C   1.0     0.125613     0.028624     0.258748  Biso 1.000000     C
    C   1.0     0.991688     0.126649     0.234312  Biso 1.000000     C
    C   1.0     0.421530     0.935617     0.243789  Biso 1.000000     C
    C   1.0     0.159285     0.038108     0.087008  Biso 1.000000     C
    C   1.0     0.110506     0.985939     0.047626  Biso 1.000000     C
    C   1.0     0.026060     0.025368     0.021811  Biso 1.000000     C
    C   1.0     0.994544     0.117444     0.037991  Biso 1.000000     C
    C   1.0     0.046248     0.164831     0.078309  Biso 1.000000     C
    C   1.0     0.624467     0.407946     0.700285  Biso 1.000000     C
    C   1.0     0.544923     0.478675     0.718390  Biso 1.000000     C
    C   1.0     0.439833     0.460907     0.717795  Biso 1.000000     C
    C   1.0     0.395889     0.369803     0.695650  Biso 1.000000     C
    C   1.0     0.875086     0.471634     0.759431  Biso 1.000000     C
    C   1.0     0.008907     0.371055     0.737881  Biso 1.000000     C
    C   1.0     0.578694     0.566219     0.739729  Biso 1.000000     C
    C   1.0     0.822383     0.433575     0.571330  Biso 1.000000     C
    C   1.0     0.869064     0.484631     0.530693  Biso 1.000000     C
    C   1.0     0.972914     0.471743     0.520692  Biso 1.000000     C
    C   1.0     0.024533     0.405059     0.552586  Biso 1.000000     C
    C   1.0     0.972343     0.355270     0.591852  Biso 1.000000     C
    C   1.0     0.875806     0.907127     0.297807  Biso 1.000000     C
    C   1.0     0.955777     0.977010     0.279218  Biso 1.000000     C
    C   1.0     0.061018     0.960273     0.281402  Biso 1.000000     C
    C   1.0     0.105126     0.870357     0.304906  Biso 1.000000     C
    C   1.0     0.625030     0.970812     0.241316  Biso 1.000000     C
    C   1.0     0.491172     0.872255     0.265611  Biso 1.000000     C
    C   1.0     0.922067     0.063087     0.256156  Biso 1.000000     C
    C   1.0     0.658366     0.960824     0.412902  Biso 1.000000     C
    C   1.0     0.609852     0.012955     0.452470  Biso 1.000000     C
    C   1.0     0.525312     0.973642     0.478476  Biso 1.000000     C
    C   1.0     0.493444     0.881707     0.462263  Biso 1.000000     C
    C   1.0     0.544910     0.834316     0.421767  Biso 1.000000     C
    C   1.0     0.124338     0.592186     0.799843  Biso 1.000000     C
    C   1.0     0.044588     0.521924     0.781487  Biso 1.000000     C
    C   1.0     0.939443     0.539583     0.782466  Biso 1.000000     C
    C   1.0     0.895835     0.630439     0.805161  Biso 1.000000     C
    C   1.0     0.375565     0.529043     0.740810  Biso 1.000000     C
    C   1.0     0.509402     0.629844     0.761811  Biso 1.000000     C
    C   1.0     0.078295     0.434573     0.759859  Biso 1.000000     C
    C   1.0     0.322351     0.564263     0.928482  Biso 1.000000     C
    C   1.0     0.369039     0.513297     0.969040  Biso 1.000000     C
    C   1.0     0.472780     0.526673     0.978995  Biso 1.000000     C
    C   1.0     0.524265     0.593651     0.947093  Biso 1.000000     C
    C   1.0     0.472104     0.643340     0.907929  Biso 1.000000     C
    N   1.0     0.908041     0.889829     0.764404  Biso 1.000000     N
    N   1.0     0.871923     0.869304     0.899158  Biso 1.000000     N
    N   1.0     0.092552     0.609699     0.264431  Biso 1.000000     N
    N   1.0     0.126872     0.626481     0.397166  Biso 1.000000     N
    N   1.0     0.408475     0.110373     0.736830  Biso 1.000000     N
    N   1.0     0.372449     0.130088     0.601727  Biso 1.000000     N
    N   1.0     0.592768     0.389465     0.234821  Biso 1.000000     N
    N   1.0     0.627045     0.372549     0.102264  Biso 1.000000     N
    N   1.0     0.092751     0.109308     0.234881  Biso 1.000000     N
    N   1.0     0.127896     0.126305     0.102490  Biso 1.000000     N
    N   1.0     0.908120     0.389890     0.736572  Biso 1.000000     N
    N   1.0     0.872797     0.369507     0.601638  Biso 1.000000     N
    N   1.0     0.592175     0.889944     0.265121  Biso 1.000000     N
    N   1.0     0.626677     0.872730     0.397419  Biso 1.000000     N
    N   1.0     0.408644     0.610967     0.763403  Biso 1.000000     N
    N   1.0     0.372655     0.628714     0.898229  Biso 1.000000     N
    O   1.0     0.666320     0.924606     0.845168  Biso 1.000000     O
    O   1.0     0.653511     0.845213     0.768142  Biso 1.000000     O
    O   1.0     0.453691     0.811848     0.828734  Biso 1.000000     O
    O   1.0     0.300320     0.854240     0.798060  Biso 1.000000     O
    O   1.0     0.329522     0.575796     0.339489  Biso 1.000000     O
    O   1.0     0.350713     0.658577     0.264035  Biso 1.000000     O
    O   1.0     0.546576     0.683995     0.330821  Biso 1.000000     O
    O   1.0     0.698554     0.646025     0.296186  Biso 1.000000     O
    O   1.0     0.168181     0.075566     0.656952  Biso 1.000000     O
    O   1.0     0.154659     0.154846     0.733995  Biso 1.000000     O
    O   1.0     0.955044     0.187685     0.671851  Biso 1.000000     O
    O   1.0     0.801711     0.146380     0.703679  Biso 1.000000     O
    O   1.0     0.832066     0.424065     0.158049  Biso 1.000000     O
    O   1.0     0.848895     0.341527     0.233812  Biso 1.000000     O
    O   1.0     0.048623     0.313583     0.169444  Biso 1.000000     O
    O   1.0     0.199996     0.353812     0.203650  Biso 1.000000     O
    O   1.0     0.333391     0.075165     0.157677  Biso 1.000000     O
    O   1.0     0.347486     0.157060     0.233859  Biso 1.000000     O
    O   1.0     0.546954     0.184331     0.169173  Biso 1.000000     O
    O   1.0     0.698709     0.146103     0.203663  Biso 1.000000     O
    O   1.0     0.666186     0.420837     0.655512  Biso 1.000000     O
    O   1.0     0.653547     0.345661     0.733814  Biso 1.000000     O
    O   1.0     0.453594     0.311935     0.671643  Biso 1.000000     O
    O   1.0     0.300844     0.353839     0.703730  Biso 1.000000     O
    O   1.0     0.831770     0.924392     0.341582  Biso 1.000000     O
    O   1.0     0.848857     0.841203     0.265993  Biso 1.000000     O
    O   1.0     0.048207     0.813857     0.330336  Biso 1.000000     O
    O   1.0     0.199982     0.853840     0.296241  Biso 1.000000     O
    O   1.0     0.164468     0.579270     0.844890  Biso 1.000000     O
    O   1.0     0.155272     0.653889     0.766311  Biso 1.000000     O
    O   1.0     0.954451     0.688517     0.828283  Biso 1.000000     O
    O   1.0     0.800314     0.645889     0.798457  Biso 1.000000     O
   Cd   1.0     0.798079     0.805288     0.820636  Biso 1.000000    Cd
   Cd   1.0     0.202566     0.695397     0.319614  Biso 1.000000    Cd
   Cd   1.0     0.299173     0.194690     0.680563  Biso 1.000000    Cd
   Cd   1.0     0.702719     0.303827     0.179483  Biso 1.000000    Cd
   Cd   1.0     0.202997     0.195363     0.179670  Biso 1.000000    Cd
   Cd   1.0     0.798786     0.304919     0.680349  Biso 1.000000    Cd
   Cd   1.0     0.702168     0.803918     0.320082  Biso 1.000000    Cd
   Cd   1.0     0.298669     0.694773     0.820145  Biso 1.000000    Cd
