#======================================================================

# CRYSTAL DATA

#----------------------------------------------------------------------

data_VESTA_phase_1


_pd_phase_name                         MOF
_cell_length_a                         14.11800
_cell_length_b                         14.10500
_cell_length_c                         14.11400
_cell_angle_alpha                      101.11900
_cell_angle_beta                       101.21200
_cell_angle_gamma                      101.17100
_symmetry_space_group_name_H-M         "P 1"
_symmetry_Int_Tables_number            1

loop_
_symmetry_equiv_pos_as_xyz
   "x, y, z"

loop_
   _atom_site_label
   _atom_site_occupancy
   _atom_site_fract_x
   _atom_site_fract_y
   _atom_site_fract_z
   _atom_site_adp_type
   _atom_site_B_iso_or_equiv
   _atom_site_type_symbol
    H   1.0     0.773823     0.814044     0.930254  Biso 1.000000     H
    H   1.0     0.882228     0.179859     0.093924  Biso 1.000000     H
    H   1.0     0.782284     0.256228     0.200195  Biso 1.000000     H
    H   1.0     0.629181     0.154260     0.225482  Biso 1.000000     H
    H   1.0     0.573168     0.973634     0.148655  Biso 1.000000     H
    H   1.0     0.592492     0.736297     0.858688  Biso 1.000000     H
    H   1.0     0.464154     0.587026     0.848132  Biso 1.000000     H
    H   1.0     0.482264     0.683608     0.161928  Biso 1.000000     H
    H   1.0     0.618257     0.827447     0.173777  Biso 1.000000     H
    H   1.0     0.930730     0.774168     0.814034  Biso 1.000000     H
    H   1.0     0.094028     0.881994     0.179785  Biso 1.000000     H
    H   1.0     0.200337     0.781860     0.256239  Biso 1.000000     H
    H   1.0     0.225763     0.628810     0.154358  Biso 1.000000     H
    H   1.0     0.148997     0.572975     0.973777  Biso 1.000000     H
    H   1.0     0.858883     0.592494     0.736420  Biso 1.000000     H
    H   1.0     0.848150     0.464173     0.587222  Biso 1.000000     H
    H   1.0     0.161996     0.482214     0.683720  Biso 1.000000     H
    H   1.0     0.173968     0.618182     0.827493  Biso 1.000000     H
    H   1.0     0.813982     0.930952     0.774264  Biso 1.000000     H
    H   1.0     0.179731     0.094129     0.882402  Biso 1.000000     H
    H   1.0     0.256156     0.200356     0.782271  Biso 1.000000     H
    H   1.0     0.154314     0.225625     0.628992  Biso 1.000000     H
    H   1.0     0.973761     0.148804     0.572973  Biso 1.000000     H
    H   1.0     0.736647     0.858801     0.592527  Biso 1.000000     H
    H   1.0     0.587353     0.848079     0.464102  Biso 1.000000     H
    H   1.0     0.683626     0.162160     0.482070  Biso 1.000000     H
    H   1.0     0.827455     0.174106     0.618158  Biso 1.000000     H
    H   1.0     0.185948     0.225793     0.069349  Biso 1.000000     H
    H   1.0     0.820225     0.117831     0.905986  Biso 1.000000     H
    H   1.0     0.743864     0.218005     0.799654  Biso 1.000000     H
    H   1.0     0.845772     0.371223     0.774345  Biso 1.000000     H
    H   1.0     0.026325     0.427126     0.851210  Biso 1.000000     H
    H   1.0     0.263545     0.407422     0.141196  Biso 1.000000     H
    H   1.0     0.412840     0.535770     0.151883  Biso 1.000000     H
    H   1.0     0.316394     0.517779     0.837969  Biso 1.000000     H
    H   1.0     0.172534     0.381784     0.826052  Biso 1.000000     H
    H   1.0     0.226140     0.069771     0.185963  Biso 1.000000     H
    H   1.0     0.117630     0.906189     0.820312  Biso 1.000000     H
    H   1.0     0.217529     0.799814     0.743957  Biso 1.000000     H
    H   1.0     0.370673     0.774405     0.845855  Biso 1.000000     H
    H   1.0     0.426787     0.851236     0.026379  Biso 1.000000     H
    H   1.0     0.407423     0.141418     0.263644  Biso 1.000000     H
    H   1.0     0.535847     0.151959     0.412864  Biso 1.000000     H
    H   1.0     0.517915     0.837996     0.316322  Biso 1.000000     H
    H   1.0     0.381845     0.826152     0.172526  Biso 1.000000     H
    H   1.0     0.069393     0.186121     0.226047  Biso 1.000000     H
    H   1.0     0.906048     0.820218     0.117988  Biso 1.000000     H
    H   1.0     0.799756     0.743697     0.217962  Biso 1.000000     H
    H   1.0     0.774363     0.845573     0.370969  Biso 1.000000     H
    H   1.0     0.851105     0.026238     0.426882  Biso 1.000000     H
    H   1.0     0.141150     0.263631     0.407681  Biso 1.000000     H
    H   1.0     0.151842     0.412849     0.535993  Biso 1.000000     H
    H   1.0     0.837993     0.316357     0.517741  Biso 1.000000     H
    H   1.0     0.826057     0.172602     0.381756  Biso 1.000000     H
    C   1.0     0.764428     0.880915     0.976794  Biso 1.000000     C
    C   1.0     0.783821     0.032841     0.061074  Biso 1.000000     C
    C   1.0     0.815659     0.134909     0.105569  Biso 1.000000     C
    C   1.0     0.759147     0.176879     0.164850  Biso 1.000000     C
    C   1.0     0.672594     0.119098     0.179731  Biso 1.000000     C
    C   1.0     0.640187     0.017286     0.136540  Biso 1.000000     C
    C   1.0     0.697493     0.975329     0.077821  Biso 1.000000     C
    C   1.0     0.612201     0.792131     0.016614  Biso 1.000000     C
    C   1.0     0.568840     0.723709     0.925163  Biso 1.000000     C
    C   1.0     0.495053     0.640261     0.919838  Biso 1.000000     C
    C   1.0     0.460268     0.623994     0.003744  Biso 1.000000     C
    C   1.0     0.506661     0.693275     0.095025  Biso 1.000000     C
    C   1.0     0.582419     0.775685     0.102194  Biso 1.000000     C
    C   1.0     0.977148     0.764588     0.880914  Biso 1.000000     C
    C   1.0     0.061305     0.783706     0.032827  Biso 1.000000     C
    C   1.0     0.105735     0.815435     0.134884  Biso 1.000000     C
    C   1.0     0.165033     0.758821     0.176897  Biso 1.000000     C
    C   1.0     0.179978     0.672285     0.119169  Biso 1.000000     C
    C   1.0     0.136824     0.639978     0.017368  Biso 1.000000     C
    C   1.0     0.078050     0.697352     0.975387  Biso 1.000000     C
    C   1.0     0.016821     0.612212     0.792200  Biso 1.000000     C
    C   1.0     0.925330     0.568859     0.723806  Biso 1.000000     C
    C   1.0     0.919914     0.495060     0.640398  Biso 1.000000     C
    C   1.0     0.003790     0.460244     0.624102  Biso 1.000000     C
    C   1.0     0.095108     0.506627     0.693369  Biso 1.000000     C
    C   1.0     0.102354     0.582388     0.775745  Biso 1.000000     C
    C   1.0     0.880889     0.977231     0.764720  Biso 1.000000     C
    C   1.0     0.032797     0.061289     0.783930  Biso 1.000000     C
    C   1.0     0.134834     0.105751     0.815748  Biso 1.000000     C
    C   1.0     0.176836     0.165012     0.759130  Biso 1.000000     C
    C   1.0     0.119131     0.179872     0.672467  Biso 1.000000     C
    C   1.0     0.017354     0.136696     0.640061  Biso 1.000000     C
    C   1.0     0.975384     0.078010     0.697483  Biso 1.000000     C
    C   1.0     0.792241     0.016849     0.612180  Biso 1.000000     C
    C   1.0     0.723946     0.925272     0.568816  Biso 1.000000     C
    C   1.0     0.640512     0.919872     0.494986  Biso 1.000000     C
    C   1.0     0.624152     0.003848     0.460171  Biso 1.000000     C
    C   1.0     0.693356     0.095229     0.506525  Biso 1.000000     C
    C   1.0     0.775742     0.102462     0.582333  Biso 1.000000     C
    C   1.0     0.119085     0.235372     0.022975  Biso 1.000000     C
    C   1.0     0.967190     0.216226     0.938835  Biso 1.000000     C
    C   1.0     0.865149     0.184459     0.894344  Biso 1.000000     C
    C   1.0     0.823184     0.241097     0.835024  Biso 1.000000     C
    C   1.0     0.880927     0.327724     0.820140  Biso 1.000000     C
    C   1.0     0.982706     0.360065     0.863338  Biso 1.000000     C
    C   1.0     0.024645     0.302630     0.922088  Biso 1.000000     C
    C   1.0     0.207824     0.387777     0.983244  Biso 1.000000     C
    C   1.0     0.276211     0.431101     0.074740  Biso 1.000000     C
    C   1.0     0.359653     0.504896     0.080123  Biso 1.000000     C
    C   1.0     0.375962     0.539699     0.996200  Biso 1.000000     C
    C   1.0     0.306700     0.493346     0.904877  Biso 1.000000     C
    C   1.0     0.224292     0.417583     0.897659  Biso 1.000000     C
    C   1.0     0.235540     0.023279     0.119107  Biso 1.000000     C
    C   1.0     0.216099     0.938988     0.967265  Biso 1.000000     C
    C   1.0     0.184222     0.894507     0.865235  Biso 1.000000     C
    C   1.0     0.240706     0.835158     0.823272  Biso 1.000000     C
    C   1.0     0.327289     0.820217     0.881012  Biso 1.000000     C
    C   1.0     0.359742     0.863398     0.982780  Biso 1.000000     C
    C   1.0     0.302469     0.922199     0.024715  Biso 1.000000     C
    C   1.0     0.387836     0.983396     0.207840  Biso 1.000000     C
    C   1.0     0.431143     0.074910     0.276226  Biso 1.000000     C
    C   1.0     0.504970     0.080226     0.359638  Biso 1.000000     C
    C   1.0     0.539832     0.996263     0.375896  Biso 1.000000     C
    C   1.0     0.493473     0.904933     0.306647  Biso 1.000000     C
    C   1.0     0.417680     0.897768     0.224266  Biso 1.000000     C
    C   1.0     0.022941     0.119205     0.235531  Biso 1.000000     C
    C   1.0     0.938788     0.967212     0.216304  Biso 1.000000     C
    C   1.0     0.894351     0.865121     0.184522  Biso 1.000000     C
    C   1.0     0.835062     0.823068     0.241047  Biso 1.000000     C
    C   1.0     0.820125     0.880796     0.327549  Biso 1.000000     C
    C   1.0     0.863271     0.982634     0.359907  Biso 1.000000     C
    C   1.0     0.922010     0.024673     0.302593  Biso 1.000000     C
    C   1.0     0.983206     0.207898     0.387823  Biso 1.000000     C
    C   1.0     0.074691     0.276269     0.431256  Biso 1.000000     C
    C   1.0     0.080084     0.359675     0.505059  Biso 1.000000     C
    C   1.0     0.996198     0.375971     0.539817  Biso 1.000000     C
    C   1.0     0.904889     0.306716     0.493371  Biso 1.000000     C
    C   1.0     0.897663     0.224348     0.417598  Biso 1.000000     C
    N   1.0     0.823854     0.971373     0.997490  Biso 1.000000     N
    N   1.0     0.686970     0.878388     0.022727  Biso 1.000000     N
    N   1.0     0.997775     0.823912     0.971347  Biso 1.000000     N
    N   1.0     0.023017     0.686989     0.878427  Biso 1.000000     N
    N   1.0     0.971294     0.997804     0.824137  Biso 1.000000     N
    N   1.0     0.878432     0.023041     0.687063  Biso 1.000000     N
    N   1.0     0.028660     0.176012     0.002376  Biso 1.000000     N
    N   1.0     0.121590     0.312991     0.977098  Biso 1.000000     N
    N   1.0     0.176080     0.002635     0.028694  Biso 1.000000     N
    N   1.0     0.313018     0.977287     0.121625  Biso 1.000000     N
    N   1.0     0.002318     0.028748     0.176183  Biso 1.000000     N
    N   1.0     0.977038     0.121673     0.313034  Biso 1.000000     N
    O   1.0     0.675315     0.803360     0.745646  Biso 1.000000     O
    O   1.0     0.748716     0.678693     0.805415  Biso 1.000000     O
    O   1.0     0.805926     0.749782     0.678490  Biso 1.000000     O
    O   1.0     0.642850     0.638490     0.639434  Biso 1.000000     O
    O   1.0     0.194183     0.321796     0.250771  Biso 1.000000     O
    O   1.0     0.324657     0.253922     0.197702  Biso 1.000000     O
    O   1.0     0.251902     0.195901     0.323454  Biso 1.000000     O
    O   1.0     0.357548     0.361866     0.361701  Biso 1.000000     O
   Cl   1.0     0.716960     0.716369     0.716036  Biso 1.000000    Cl
   Cl   1.0     0.283306     0.284570     0.284619  Biso 1.000000    Cl
   Cd   1.0    -0.000055    -0.000037     0.000129  Biso 1.000000    Cd
