#======================================================================

# CRYSTAL DATA

#----------------------------------------------------------------------

data_VESTA_phase_1


_pd_phase_name                         MOF
_cell_length_a                         13.28400
_cell_length_b                         13.29300
_cell_length_c                         23.93900
_cell_angle_alpha                      75.83100
_cell_angle_beta                       85.43900
_cell_angle_gamma                      114.12100
_symmetry_space_group_name_H-M         "P 1"
_symmetry_Int_Tables_number            1

loop_
_symmetry_equiv_pos_as_xyz
   "x, y, z"

loop_
   _atom_site_label
   _atom_site_occupancy
   _atom_site_fract_x
   _atom_site_fract_y
   _atom_site_fract_z
   _atom_site_adp_type
   _atom_site_B_iso_or_equiv
   _atom_site_type_symbol
    H   1.0     0.174897     0.690679     0.157837  Biso 1.000000     H
    H   1.0     0.638373     0.631194     0.195943  Biso 1.000000     H
    H   1.0     0.745448     0.135492     0.228701  Biso 1.000000     H
    H   1.0     0.363135     0.802101     0.180116  Biso 1.000000     H
    H   1.0     0.992207     0.891771     0.102163  Biso 1.000000     H
    H   1.0     0.846657     0.346122     0.170883  Biso 1.000000     H
    H   1.0     0.597461     0.884480     0.100334  Biso 1.000000     H
    H   1.0     0.969509     0.410823     0.073964  Biso 1.000000     H
    H   1.0     0.657392     0.000000    -0.005960  Biso 1.000000     H
    H   1.0     0.658888     0.540255     0.115913  Biso 1.000000     H
    H   1.0     0.330854     0.313871     0.227923  Biso 1.000000     H
    H   1.0     0.482521     0.047791     0.248615  Biso 1.000000     H
    H   1.0     0.908746     0.132249     0.980917  Biso 1.000000     H
    H   1.0     0.606501     0.278860     0.032697  Biso 1.000000     H
    H   1.0     0.796457     0.843842     0.145100  Biso 1.000000     H
    H   1.0     0.353941     0.144184     0.217504  Biso 1.000000     H
    H   1.0     0.999986     0.270575     0.030558  Biso 1.000000     H
    H   1.0     0.258534     0.412233     0.149905  Biso 1.000000     H
    H   1.0     0.662599     0.194047     0.961015  Biso 1.000000     H
    H   1.0     0.124461     0.500108     0.143557  Biso 1.000000     H
    H   1.0     0.686005     0.370304     0.109624  Biso 1.000000     H
    H   1.0     0.350615     0.333556     0.341316  Biso 1.000000     H
    H   1.0     0.327907     0.833947     0.303191  Biso 1.000000     H
    H   1.0     0.864891     0.973508     0.271986  Biso 1.000000     H
    H   1.0     0.483914     0.543780     0.318884  Biso 1.000000     H
    H   1.0     0.494518     0.094306     0.397683  Biso 1.000000     H
    H   1.0     0.017602     0.016979     0.330347  Biso 1.000000     H
    H   1.0     0.486347     0.698409     0.399289  Biso 1.000000     H
    H   1.0     0.985327     0.043281     0.427390  Biso 1.000000     H
    H   1.0     0.495899     0.651487     0.505727  Biso 1.000000     H
    H   1.0     0.158029     0.774449     0.383886  Biso 1.000000     H
    H   1.0     0.042137     0.558707     0.271229  Biso 1.000000     H
    H   1.0     0.797386     0.731531     0.251145  Biso 1.000000     H
    H   1.0     0.613386     0.889740     0.519373  Biso 1.000000     H
    H   1.0     0.812912     0.638512     0.467321  Biso 1.000000     H
    H   1.0     0.489683     0.941456     0.354595  Biso 1.000000     H
    H   1.0     0.862065     0.571506     0.281928  Biso 1.000000     H
    H   1.0     0.801635     0.030511     0.470346  Biso 1.000000     H
    H   1.0     0.063797     0.408747     0.349481  Biso 1.000000     H
    H   1.0     0.656577     0.622918     0.538958  Biso 1.000000     H
    H   1.0     0.145741     0.268693     0.355843  Biso 1.000000     H
    H   1.0     0.981646     0.795226     0.390553  Biso 1.000000     H
    H   1.0     0.825181     0.309268     0.842162  Biso 1.000000     H
    H   1.0     0.361701     0.368740     0.804050  Biso 1.000000     H
    H   1.0     0.254624     0.864436     0.771285  Biso 1.000000     H
    H   1.0     0.636943     0.197838     0.819885  Biso 1.000000     H
    H   1.0     0.007856     0.108135     0.897830  Biso 1.000000     H
    H   1.0     0.153422     0.653803     0.829098  Biso 1.000000     H
    H   1.0     0.402607     0.115453     0.899663  Biso 1.000000     H
    H   1.0     0.030570     0.589091     0.926017  Biso 1.000000     H
    H   1.0     0.342668    -0.000215     0.000000  Biso 1.000000     H
    H   1.0     0.341188     0.459672     0.884084  Biso 1.000000     H
    H   1.0     0.669208     0.686077     0.772063  Biso 1.000000     H
    H   1.0     0.517534     0.952134     0.751383  Biso 1.000000     H
    H   1.0     0.091314     0.867653     0.019076  Biso 1.000000     H
    H   1.0     0.393544     0.721062     0.967301  Biso 1.000000     H
    H   1.0     0.203603     0.156068     0.854897  Biso 1.000000     H
    H   1.0     0.646110     0.855754     0.782488  Biso 1.000000     H
    H   1.0     0.000086     0.729329     0.969430  Biso 1.000000     H
    H   1.0     0.741543     0.587719     0.850079  Biso 1.000000     H
    H   1.0     0.337451     0.805880     0.038983  Biso 1.000000     H
    H   1.0     0.875618     0.499846     0.856432  Biso 1.000000     H
    H   1.0     0.314057     0.629614     0.890377  Biso 1.000000     H
    H   1.0     0.649440     0.666374     0.658676  Biso 1.000000     H
    H   1.0     0.672162     0.165987     0.696810  Biso 1.000000     H
    H   1.0     0.135213     0.026423     0.728002  Biso 1.000000     H
    H   1.0     0.516145     0.456148     0.681107  Biso 1.000000     H
    H   1.0     0.505607     0.905658     0.602304  Biso 1.000000     H
    H   1.0     0.982507     0.982953     0.669638  Biso 1.000000     H
    H   1.0     0.513715     0.301531     0.600705  Biso 1.000000     H
    H   1.0     0.014795     0.956668     0.572591  Biso 1.000000     H
    H   1.0     0.504159     0.348467     0.494269  Biso 1.000000     H
    H   1.0     0.842031     0.225471     0.616124  Biso 1.000000     H
    H   1.0     0.957931     0.441241     0.728768  Biso 1.000000     H
    H   1.0     0.202678     0.268393     0.748859  Biso 1.000000     H
    H   1.0     0.386741     0.110226     0.480614  Biso 1.000000     H
    H   1.0     0.187147     0.361439     0.532685  Biso 1.000000     H
    H   1.0     0.510431     0.058496     0.645398  Biso 1.000000     H
    H   1.0     0.138002     0.428439     0.718071  Biso 1.000000     H
    H   1.0     0.198494     0.969453     0.529636  Biso 1.000000     H
    H   1.0     0.936263     0.591191     0.650520  Biso 1.000000     H
    H   1.0     0.343480     0.377042     0.461043  Biso 1.000000     H
    H   1.0     0.854314     0.731241     0.644154  Biso 1.000000     H
    H   1.0     0.018413     0.204694     0.609459  Biso 1.000000     H
    C   1.0     0.491707     0.437633     0.171022  Biso 1.000000     C
    C   1.0     0.235910     0.655298     0.161503  Biso 1.000000     C
    C   1.0     0.557599     0.628463     0.188920  Biso 1.000000     C
    C   1.0     0.799397     0.164681     0.185706  Biso 1.000000     C
    C   1.0     0.340042     0.717569     0.174058  Biso 1.000000     C
    C   1.0     0.995036     0.938959     0.057500  Biso 1.000000     C
    C   1.0     0.415107     0.667894     0.178683  Biso 1.000000     C
    C   1.0     0.856197     0.281451     0.153342  Biso 1.000000     C
    C   1.0     0.600627     0.970082     0.085770  Biso 1.000000     C
    C   1.0     0.927129     0.318625     0.097983  Biso 1.000000     C
    C   1.0     0.814329     0.084990     0.161272  Biso 1.000000     C
    C   1.0     0.384843     0.558515     0.169940  Biso 1.000000     C
    C   1.0     0.886577     0.123890     0.105814  Biso 1.000000     C
    C   1.0     0.633946     0.000000     0.026659  Biso 1.000000     C
    C   1.0     0.591565     0.453787     0.137735  Biso 1.000000     C
    C   1.0     0.406673     0.326397     0.200212  Biso 1.000000     C
    C   1.0     0.513394     0.053279     0.204003  Biso 1.000000     C
    C   1.0     0.570148     0.000000     0.126353  Biso 1.000000     C
    C   1.0     0.949324     0.075166     0.989487  Biso 1.000000     C
    C   1.0     0.944268     0.013667     0.046920  Biso 1.000000     C
    C   1.0     0.520364     0.246834     0.161556  Biso 1.000000     C
    C   1.0     0.605337     0.194086     0.047439  Biso 1.000000     C
    C   1.0     0.572656     0.128527     0.106739  Biso 1.000000     C
    C   1.0     0.812698     0.931851     0.142945  Biso 1.000000     C
    C   1.0     0.420486     0.230664     0.194777  Biso 1.000000     C
    C   1.0     0.944464     0.240893     0.073198  Biso 1.000000     C
    C   1.0     0.281031     0.496090     0.156811  Biso 1.000000     C
    C   1.0     0.636529     0.145767     0.007729  Biso 1.000000     C
    C   1.0     0.206919     0.546250     0.153117  Biso 1.000000     C
    C   1.0     0.606638     0.358001     0.133614  Biso 1.000000     C
    C   1.0     0.109739     0.662509     0.328455  Biso 1.000000     C
    C   1.0     0.318708     0.398042     0.337687  Biso 1.000000     C
    C   1.0     0.318383     0.746346     0.310233  Biso 1.000000     C
    C   1.0     0.851046     0.984597     0.315025  Biso 1.000000     C
    C   1.0     0.393310     0.514565     0.325035  Biso 1.000000     C
    C   1.0     0.496833     0.052497     0.442411  Biso 1.000000     C
    C   1.0     0.348007     0.594002     0.320440  Biso 1.000000     C
    C   1.0     0.935409     0.009093     0.347709  Biso 1.000000     C
    C   1.0     0.557329     0.686683     0.413950  Biso 1.000000     C
    C   1.0     0.917171     0.024854     0.403122  Biso 1.000000     C
    C   1.0     0.746908     0.975206     0.339197  Biso 1.000000     C
    C   1.0     0.229877     0.554929     0.329294  Biso 1.000000     C
    C   1.0     0.730299     0.992203     0.394711  Biso 1.000000     C
    C   1.0     0.563728     0.660580     0.473139  Biso 1.000000     C
    C   1.0     0.092985     0.728960     0.362038  Biso 1.000000     C
    C   1.0     0.027276     0.606724     0.299171  Biso 1.000000     C
    C   1.0     0.758307     0.717630     0.295771  Biso 1.000000     C
    C   1.0     0.645571     0.696717     0.373409  Biso 1.000000     C
    C   1.0     0.564803     0.938808     0.510689  Biso 1.000000     C
    C   1.0     0.561011     0.991206     0.453182  Biso 1.000000     C
    C   1.0     0.909452     0.681697     0.338283  Biso 1.000000     C
    C   1.0     0.742899     0.652353     0.452506  Biso 1.000000     C
    C   1.0     0.736533     0.679267     0.393132  Biso 1.000000     C
    C   1.0     0.575516     0.955467     0.357010  Biso 1.000000     C
    C   1.0     0.926113     0.615130     0.304782  Biso 1.000000     C
    C   1.0     0.814631     0.017512     0.427653  Biso 1.000000     C
    C   1.0     0.154558     0.438166     0.342510  Biso 1.000000     C
    C   1.0     0.654985     0.643842     0.492184  Biso 1.000000     C
    C   1.0     0.201262     0.360588     0.346193  Biso 1.000000     C
    C   1.0     0.993042     0.739895     0.366358  Biso 1.000000     C
    C   1.0     0.508363     0.562304     0.828970  Biso 1.000000     C
    C   1.0     0.764168     0.344648     0.838493  Biso 1.000000     C
    C   1.0     0.442475     0.371474     0.811073  Biso 1.000000     C
    C   1.0     0.200675     0.835242     0.814280  Biso 1.000000     C
    C   1.0     0.660036     0.282373     0.825939  Biso 1.000000     C
    C   1.0     0.005025     0.060945     0.942493  Biso 1.000000     C
    C   1.0     0.584969     0.332047     0.821312  Biso 1.000000     C
    C   1.0     0.143879     0.718471     0.846642  Biso 1.000000     C
    C   1.0     0.399436     0.029849     0.914228  Biso 1.000000     C
    C   1.0     0.072946     0.681289     0.902001  Biso 1.000000     C
    C   1.0     0.185739     0.914928     0.838717  Biso 1.000000     C
    C   1.0     0.615233     0.441430     0.830050  Biso 1.000000     C
    C   1.0     0.113492     0.876021     0.894176  Biso 1.000000     C
    C   1.0     0.366113    -0.035564     0.973338  Biso 1.000000     C
    C   1.0     0.408505     0.546143     0.862260  Biso 1.000000     C
    C   1.0     0.593389     0.673543     0.799777  Biso 1.000000     C
    C   1.0     0.486663     0.946647     0.795996  Biso 1.000000     C
    C   1.0     0.429913    -0.017965     0.873645  Biso 1.000000     C
    C   1.0     0.050736     0.924737     0.010506  Biso 1.000000     C
    C   1.0     0.055793     0.986236     0.953074  Biso 1.000000     C
    C   1.0     0.479693     0.753093     0.838441  Biso 1.000000     C
    C   1.0     0.394713     0.805839     0.952559  Biso 1.000000     C
    C   1.0     0.427397     0.871398     0.893260  Biso 1.000000     C
    C   1.0     0.187365     0.068061     0.857049  Biso 1.000000     C
    C   1.0     0.579570     0.769271     0.805216  Biso 1.000000     C
    C   1.0     0.055607     0.759016     0.926789  Biso 1.000000     C
    C   1.0     0.719046     0.503858     0.843178  Biso 1.000000     C
    C   1.0     0.363524     0.854161     0.992269  Biso 1.000000     C
    C   1.0     0.793159     0.453700     0.846874  Biso 1.000000     C
    C   1.0     0.393424     0.641924     0.866384  Biso 1.000000     C
    C   1.0     0.890326     0.337427     0.671548  Biso 1.000000     C
    C   1.0     0.681349     0.601889     0.662306  Biso 1.000000     C
    C   1.0     0.681684     0.253588     0.689767  Biso 1.000000     C
    C   1.0     0.149062     0.015341     0.684962  Biso 1.000000     C
    C   1.0     0.606749     0.485366     0.674958  Biso 1.000000     C
    C   1.0     0.503295     0.947469     0.557576  Biso 1.000000     C
    C   1.0     0.652056     0.405931     0.679556  Biso 1.000000     C
    C   1.0     0.064703     0.990845     0.652276  Biso 1.000000     C
    C   1.0     0.442733     0.313259     0.586048  Biso 1.000000     C
    C   1.0     0.082949     0.975094     0.596861  Biso 1.000000     C
    C   1.0     0.253204     0.024739     0.660790  Biso 1.000000     C
    C   1.0     0.770185     0.445006     0.670704  Biso 1.000000     C
    C   1.0     0.269822     0.007753     0.605275  Biso 1.000000     C
    C   1.0     0.436331     0.339369     0.526859  Biso 1.000000     C
    C   1.0     0.907076     0.270965     0.637969  Biso 1.000000     C
    C   1.0     0.972790     0.393218     0.700829  Biso 1.000000     C
    C   1.0     0.241757     0.282299     0.704232  Biso 1.000000     C
    C   1.0     0.354492     0.303221     0.626591  Biso 1.000000     C
    C   1.0     0.435326     0.061158     0.489298  Biso 1.000000     C
    C   1.0     0.439117     0.008760     0.546805  Biso 1.000000     C
    C   1.0     0.090612     0.318235     0.661723  Biso 1.000000     C
    C   1.0     0.257160     0.347595     0.547498  Biso 1.000000     C
    C   1.0     0.263530     0.320673     0.606871  Biso 1.000000     C
    C   1.0     0.424600     0.044487     0.642980  Biso 1.000000     C
    C   1.0     0.073952     0.384810     0.695219  Biso 1.000000     C
    C   1.0     0.185493     0.982445     0.572330  Biso 1.000000     C
    C   1.0     0.845502     0.561769     0.657489  Biso 1.000000     C
    C   1.0     0.345073     0.356112     0.507816  Biso 1.000000     C
    C   1.0     0.798795     0.639346     0.653804  Biso 1.000000     C
    C   1.0     0.007019     0.260030     0.633651  Biso 1.000000     C
    N   1.0     0.533466     0.973575     0.187625  Biso 1.000000     N
    N   1.0     0.768781     0.964070     0.183035  Biso 1.000000     N
    N   1.0     0.523672     0.708891     0.190900  Biso 1.000000     N
    N   1.0     0.478288     0.536281     0.176309  Biso 1.000000     N
    N   1.0     0.884398     0.023657     0.095712  Biso 1.000000     N
    N   1.0     0.534995     0.148167     0.157466  Biso 1.000000     N
    N   1.0     0.662337     0.721437     0.312090  Biso 1.000000     N
    N   1.0     0.647844     0.951464     0.317064  Biso 1.000000     N
    N   1.0     0.400930     0.714562     0.308194  Biso 1.000000     N
    N   1.0     0.213759     0.654507     0.322926  Biso 1.000000     N
    N   1.0     0.619972     0.980033     0.404488  Biso 1.000000     N
    N   1.0     0.806752     0.692424     0.342397  Biso 1.000000     N
    N   1.0     0.466597     0.026353     0.812373  Biso 1.000000     N
    N   1.0     0.231283     0.035848     0.816957  Biso 1.000000     N
    N   1.0     0.476404     0.291045     0.809095  Biso 1.000000     N
    N   1.0     0.521785     0.463660     0.823681  Biso 1.000000     N
    N   1.0     0.115667     0.976251     0.904281  Biso 1.000000     N
    N   1.0     0.465057     0.851757     0.842532  Biso 1.000000     N
    N   1.0     0.337725     0.278491     0.687912  Biso 1.000000     N
    N   1.0     0.352265     0.048481     0.682925  Biso 1.000000     N
    N   1.0     0.599136     0.285370     0.691801  Biso 1.000000     N
    N   1.0     0.786306     0.345429     0.677072  Biso 1.000000     N
    N   1.0     0.380150     0.019924     0.595500  Biso 1.000000     N
    N   1.0     0.193311     0.307508     0.657608  Biso 1.000000     N
    O   1.0     0.129753     0.477745     0.809390  Biso 1.000000     O
    O   1.0     0.179762     0.319109     0.830624  Biso 1.000000     O
    O   1.0     0.987718     0.283704     0.860973  Biso 1.000000     O
    O   1.0     0.131448     0.385471     0.909432  Biso 1.000000     O
    O   1.0     0.787241     0.941719     0.692068  Biso 1.000000     O
    O   1.0     0.649884     0.012481     0.669240  Biso 1.000000     O
    O   1.0     0.644036     0.848315     0.641073  Biso 1.000000     O
    O   1.0     0.794225     0.039011     0.591359  Biso 1.000000     O
    O   1.0     0.870313     0.522199     0.190602  Biso 1.000000     O
    O   1.0     0.820297     0.680830     0.169365  Biso 1.000000     O
    O   1.0     0.012347     0.716249     0.139029  Biso 1.000000     O
    O   1.0     0.868641     0.614485     0.090557  Biso 1.000000     O
    O   1.0     0.212825     0.058187     0.307939  Biso 1.000000     O
    O   1.0     0.350193     0.987439     0.330761  Biso 1.000000     O
    O   1.0     0.356038     0.151607     0.358924  Biso 1.000000     O
    O   1.0     0.205861     0.960909     0.408647  Biso 1.000000     O
   Cl   1.0     0.106264     0.367206     0.852973  Biso 1.000000    Cl
   Cl   1.0     0.719922     0.959797     0.648073  Biso 1.000000    Cl
   Cl   1.0     0.893806     0.632741     0.147020  Biso 1.000000    Cl
   Cl   1.0     0.280154     0.040120     0.351930  Biso 1.000000    Cl
   Cd   1.0     0.589869     0.839393     0.249823  Biso 1.000000    Cd
   Cd   1.0     0.410202     0.160540     0.750174  Biso 1.000000    Cd
