#======================================================================

# CRYSTAL DATA

#----------------------------------------------------------------------

data_VESTA_phase_1


_pd_phase_name                         MOF
_cell_length_a                         16.36600
_cell_length_b                         17.97900
_cell_length_c                         19.23200
_cell_angle_alpha                      65.45200
_cell_angle_beta                       66.27500
_cell_angle_gamma                      69.15400
_symmetry_space_group_name_H-M         "P 1"
_symmetry_Int_Tables_number            1

loop_
_symmetry_equiv_pos_as_xyz
   "x, y, z"

loop_
   _atom_site_label
   _atom_site_occupancy
   _atom_site_fract_x
   _atom_site_fract_y
   _atom_site_fract_z
   _atom_site_adp_type
   _atom_site_B_iso_or_equiv
   _atom_site_type_symbol
    H   1.0     0.846140     0.440509     0.885562  Biso 1.000000     H
    H   1.0     0.116181     0.436778     0.927159  Biso 1.000000     H
    H   1.0     0.843723     0.629397     0.969279  Biso 1.000000     H
    H   1.0     0.737993     0.576931     0.821875  Biso 1.000000     H
    H   1.0     0.572494     0.646635     0.839538  Biso 1.000000     H
    H   1.0     0.568852     0.734179     0.037813  Biso 1.000000     H
    H   1.0     0.733203     0.668832     0.019433  Biso 1.000000     H
    H   1.0     0.178084     0.396954     0.809934  Biso 1.000000     H
    H   1.0     0.272589     0.258182     0.795358  Biso 1.000000     H
    H   1.0     0.038519     0.149601     0.940991  Biso 1.000000     H
    H   1.0    -0.058682     0.289717     0.948015  Biso 1.000000     H
    H   1.0    -0.006801     0.702062     0.912665  Biso 1.000000     H
    H   1.0     0.073364     0.764480     0.951012  Biso 1.000000     H
    H   1.0     0.217654     0.600982     0.054303  Biso 1.000000     H
    H   1.0     0.113792     0.454810     0.000000  Biso 1.000000     H
    H   1.0     0.786130     0.869817     0.686386  Biso 1.000000     H
    H   1.0     0.066216     0.860043     0.493858  Biso 1.000000     H
    H   1.0     0.787686     0.868486     0.462897  Biso 1.000000     H
    H   1.0     0.788257    -0.060807     0.670209  Biso 1.000000     H
    H   1.0     0.619413    -0.021510     0.713341  Biso 1.000000     H
    H   1.0     0.488921     0.840076     0.605546  Biso 1.000000     H
    H   1.0     0.659577     0.805019     0.555968  Biso 1.000000     H
    H   1.0    -0.085704     0.804576     0.759555  Biso 1.000000     H
    H   1.0    -0.022284     0.840621     0.836537  Biso 1.000000     H
    H   1.0     0.261211    -0.037567     0.617270  Biso 1.000000     H
    H   1.0     0.077523     0.950590     0.539484  Biso 1.000000     H
    H   1.0     0.123471     0.780826     0.409262  Biso 1.000000     H
    H   1.0     0.215839     0.809060     0.265873  Biso 1.000000     H
    H   1.0    -0.017973     0.985830     0.196947  Biso 1.000000     H
    H   1.0    -0.112193     0.955974     0.339497  Biso 1.000000     H
    H   1.0     0.344809     0.989003     0.863205  Biso 1.000000     H
    H   1.0    -0.022954     0.501875     0.146225  Biso 1.000000     H
    H   1.0     0.707005     0.505608     0.104628  Biso 1.000000     H
    H   1.0    -0.020536     0.312989     0.062504  Biso 1.000000     H
    H   1.0     0.085190     0.365454     0.209914  Biso 1.000000     H
    H   1.0     0.250687     0.295746     0.192257  Biso 1.000000     H
    H   1.0     0.254337     0.208197     0.993982  Biso 1.000000     H
    H   1.0     0.089988     0.273549     0.000000  Biso 1.000000     H
    H   1.0     0.645103     0.545429     0.221859  Biso 1.000000     H
    H   1.0     0.550597     0.684200     0.236435  Biso 1.000000     H
    H   1.0     0.784665     0.792784     0.090797  Biso 1.000000     H
    H   1.0     0.881867     0.652669     0.083773  Biso 1.000000     H
    H   1.0     0.829985     0.240323     0.119126  Biso 1.000000     H
    H   1.0     0.749820     0.177903     0.080779  Biso 1.000000     H
    H   1.0     0.605526     0.341399     0.977490  Biso 1.000000     H
    H   1.0     0.709388     0.487573    -0.013588  Biso 1.000000     H
    H   1.0     0.037045     0.072580     0.345408  Biso 1.000000     H
    H   1.0     0.756961     0.082352     0.537939  Biso 1.000000     H
    H   1.0     0.035493     0.073910     0.568896  Biso 1.000000     H
    H   1.0     0.034915     0.000000     0.361587  Biso 1.000000     H
    H   1.0     0.203759     0.963902     0.318453  Biso 1.000000     H
    H   1.0     0.334260     0.102317     0.426242  Biso 1.000000     H
    H   1.0     0.163604     0.137377     0.475822  Biso 1.000000     H
    H   1.0     0.908879     0.137817     0.272241  Biso 1.000000     H
    H   1.0     0.845461     0.101765     0.195261  Biso 1.000000     H
    H   1.0     0.561964     0.979959     0.414531  Biso 1.000000     H
    H   1.0     0.745651    -0.008193     0.492314  Biso 1.000000     H
    H   1.0     0.699704     0.161561     0.622539  Biso 1.000000     H
    H   1.0     0.607339     0.133317     0.765929  Biso 1.000000     H
    H   1.0     0.841159    -0.043443     0.834846  Biso 1.000000     H
    H   1.0     0.935377    -0.013579     0.692296  Biso 1.000000     H
    H   1.0     0.478387    -0.046636     0.168591  Biso 1.000000     H
    C   1.0     0.834283     0.539749     0.927217  Biso 1.000000     C
    C   1.0     0.881506     0.468474     0.902543  Biso 1.000000     C
    C   1.0     0.001947     0.431497     0.901587  Biso 1.000000     C
    C   1.0     0.045774     0.466621     0.925942  Biso 1.000000     C
    C   1.0     0.000404     0.538093     0.950110  Biso 1.000000     C
    C   1.0    -0.090694     0.574302     0.949770  Biso 1.000000     C
    C   1.0     0.735709     0.577448     0.934997  Biso 1.000000     C
    C   1.0     0.695619     0.593157     0.876391  Biso 1.000000     C
    C   1.0     0.603063     0.632355     0.885875  Biso 1.000000     C
    C   1.0     0.547899     0.655600     0.954684  Biso 1.000000     C
    C   1.0     0.587099     0.637285     0.000000  Biso 1.000000     C
    C   1.0     0.679446     0.599726     0.000000  Biso 1.000000     C
    C   1.0     0.053486     0.352895     0.881853  Biso 1.000000     C
    C   1.0     0.147029     0.342908     0.837865  Biso 1.000000     C
    C   1.0     0.200403     0.265195     0.830200  Biso 1.000000     C
    C   1.0     0.162500     0.194322     0.869743  Biso 1.000000     C
    C   1.0     0.068475     0.204418     0.910839  Biso 1.000000     C
    C   1.0     0.013983     0.283175     0.914697  Biso 1.000000     C
    C   1.0     0.047071     0.574105     0.976309  Biso 1.000000     C
    C   1.0     0.035459     0.661531     0.952058  Biso 1.000000     C
    C   1.0     0.080553     0.696723     0.974232  Biso 1.000000     C
    C   1.0     0.137919     0.645437     0.000000  Biso 1.000000     C
    C   1.0     0.173380     0.640602     0.016480  Biso 1.000000     C
    C   1.0     0.104479     0.522849     0.000000  Biso 1.000000     C
    C   1.0     0.222160     0.108651     0.870194  Biso 1.000000     C
    C   1.0     0.449306     0.700744     0.964517  Biso 1.000000     C
    C   1.0     0.215322     0.764090     0.012612  Biso 1.000000     C
    C   1.0     0.776112     0.867146     0.579292  Biso 1.000000     C
    C   1.0     0.823953     0.865390     0.626439  Biso 1.000000     C
    C   1.0    -0.053482     0.863503     0.596632  Biso 1.000000     C
    C   1.0    -0.006366     0.859650     0.518699  Biso 1.000000     C
    C   1.0    -0.052053     0.860494     0.470171  Biso 1.000000     C
    C   1.0     0.824591     0.864324     0.501075  Biso 1.000000     C
    C   1.0     0.675040     0.881774     0.609820  Biso 1.000000     C
    C   1.0     0.627143     0.936242     0.655990  Biso 1.000000     C
    C   1.0     0.532176     0.958607     0.680368  Biso 1.000000     C
    C   1.0     0.481731     0.924198     0.662248  Biso 1.000000     C
    C   1.0     0.528541     0.867650     0.618444  Biso 1.000000     C
    C   1.0     0.624041     0.847810     0.591306  Biso 1.000000     C
    C   1.0    -0.009476     0.875734     0.643671  Biso 1.000000     C
    C   1.0    -0.036772     0.844837     0.728009  Biso 1.000000     C
    C   1.0    -0.001574     0.864754     0.771316  Biso 1.000000     C
    C   1.0     0.060543     0.917240     0.731918  Biso 1.000000     C
    C   1.0     0.089279     0.947007     0.647955  Biso 1.000000     C
    C   1.0     0.055692     0.925535     0.604611  Biso 1.000000     C
    C   1.0    -0.000774     0.867298     0.385190  Biso 1.000000     C
    C   1.0     0.091989     0.825728     0.362863  Biso 1.000000     C
    C   1.0     0.144167     0.841554     0.282759  Biso 1.000000     C
    C   1.0     0.105588     0.900820     0.222250  Biso 1.000000     C
    C   1.0     0.012265     0.940186     0.243861  Biso 1.000000     C
    C   1.0    -0.040533     0.922816     0.323952  Biso 1.000000     C
    C   1.0     0.379508     0.944506     0.694398  Biso 1.000000     C
    C   1.0     0.097440     0.939335     0.778656  Biso 1.000000     C
    C   1.0     0.162731     0.921710     0.136228  Biso 1.000000     C
    C   1.0     0.305302     0.940067     0.904100  Biso 1.000000     C
    C   1.0    -0.011096     0.402636     0.104569  Biso 1.000000     C
    C   1.0    -0.058320     0.473909     0.129245  Biso 1.000000     C
    C   1.0     0.821240     0.510887     0.130200  Biso 1.000000     C
    C   1.0     0.777411     0.475762     0.105847  Biso 1.000000     C
    C   1.0     0.822782     0.404292     0.081677  Biso 1.000000     C
    C   1.0     0.913881     0.368082     0.082016  Biso 1.000000     C
    C   1.0     0.087478     0.364934     0.096791  Biso 1.000000     C
    C   1.0     0.127566     0.349227     0.155398  Biso 1.000000     C
    C   1.0     0.220121     0.310027     0.145918  Biso 1.000000     C
    C   1.0     0.275287     0.286779     0.077111  Biso 1.000000     C
    C   1.0     0.236089     0.305093     0.017376  Biso 1.000000     C
    C   1.0     0.143743     0.342656     0.027490  Biso 1.000000     C
    C   1.0     0.769700     0.589489     0.149937  Biso 1.000000     C
    C   1.0     0.676157     0.599476     0.193925  Biso 1.000000     C
    C   1.0     0.622783     0.677188     0.201593  Biso 1.000000     C
    C   1.0     0.660685     0.748062     0.162048  Biso 1.000000     C
    C   1.0     0.754709     0.737967     0.120950  Biso 1.000000     C
    C   1.0     0.809201     0.659210     0.117091  Biso 1.000000     C
    C   1.0     0.776113     0.368279     0.055480  Biso 1.000000     C
    C   1.0     0.787725     0.280853     0.079731  Biso 1.000000     C
    C   1.0     0.742629     0.245661     0.057561  Biso 1.000000     C
    C   1.0     0.685264     0.296945     0.009123  Biso 1.000000     C
    C   1.0     0.649800     0.301780     0.000000  Biso 1.000000     C
    C   1.0     0.718704     0.419535     0.006746  Biso 1.000000     C
    C   1.0     0.601025     0.833734     0.161596  Biso 1.000000     C
    C   1.0     0.373879     0.241631     0.067282  Biso 1.000000     C
    C   1.0     0.607859     0.178291     0.000000  Biso 1.000000     C
    C   1.0     0.047064     0.075251     0.452502  Biso 1.000000     C
    C   1.0    -0.000778     0.077006     0.405356  Biso 1.000000     C
    C   1.0     0.876657     0.078893     0.435164  Biso 1.000000     C
    C   1.0     0.829543     0.082746     0.513097  Biso 1.000000     C
    C   1.0     0.875230     0.081901     0.561625  Biso 1.000000     C
    C   1.0    -0.001413     0.078072     0.530719  Biso 1.000000     C
    C   1.0     0.148137     0.060621     0.421973  Biso 1.000000     C
    C   1.0     0.196032     0.006152     0.375804  Biso 1.000000     C
    C   1.0     0.290998    -0.016214     0.351425  Biso 1.000000     C
    C   1.0     0.341445     0.018194     0.369543  Biso 1.000000     C
    C   1.0     0.294638     0.074743     0.413345  Biso 1.000000     C
    C   1.0     0.199138     0.094586     0.440485  Biso 1.000000     C
    C   1.0     0.832651     0.066661     0.388125  Biso 1.000000     C
    C   1.0     0.859947     0.097555     0.303788  Biso 1.000000     C
    C   1.0     0.824750     0.077634     0.260482  Biso 1.000000     C
    C   1.0     0.762634     0.025149     0.299882  Biso 1.000000     C
    C   1.0     0.733897    -0.004616     0.383845  Biso 1.000000     C
    C   1.0     0.767482     0.016861     0.427187  Biso 1.000000     C
    C   1.0     0.823954     0.075093     0.646606  Biso 1.000000     C
    C   1.0     0.731189     0.116659     0.668936  Biso 1.000000     C
    C   1.0     0.679013     0.100827     0.749040  Biso 1.000000     C
    C   1.0     0.717594     0.041560     0.809548  Biso 1.000000     C
    C   1.0     0.810919     0.002200     0.787934  Biso 1.000000     C
    C   1.0     0.863716     0.019575     0.707842  Biso 1.000000     C
    C   1.0     0.443668    -0.002117     0.337393  Biso 1.000000     C
    C   1.0     0.725739     0.003047     0.253146  Biso 1.000000     C
    C   1.0     0.660453     0.020665     0.895570  Biso 1.000000     C
    C   1.0     0.517890     0.002303     0.127697  Biso 1.000000     C
    O   1.0     0.410025     0.711726     0.916062  Biso 1.000000     O
    O   1.0     0.435182     0.811194    -0.005713  Biso 1.000000     O
    O   1.0     0.209627     0.048102     0.934851  Biso 1.000000     O
    O   1.0     0.283859     0.104007     0.803486  Biso 1.000000     O
    O   1.0     0.188089     0.762656     0.000000  Biso 1.000000     O
    O   1.0     0.261208     0.719965     0.059756  Biso 1.000000     O
    O   1.0     0.466506    -0.009104     0.708791  Biso 1.000000     O
    O   1.0     0.335299     0.892465     0.709242  Biso 1.000000     O
    O   1.0     0.096783     0.892514     0.849342  Biso 1.000000     O
    O   1.0     0.252835    -0.018821     0.741689  Biso 1.000000     O
    O   1.0     0.129926     0.982646     0.083672  Biso 1.000000     O
    O   1.0     0.244722     0.875408     0.120784  Biso 1.000000     O
    O   1.0     0.249813     0.929212     0.880151  Biso 1.000000     O
    O   1.0     0.318163     0.899786     0.972326  Biso 1.000000     O
    O   1.0     0.413160     0.230655     0.115736  Biso 1.000000     O
    O   1.0     0.388003     0.131171     0.000000  Biso 1.000000     O
    O   1.0     0.613548     0.894278     0.096933  Biso 1.000000     O
    O   1.0     0.539336     0.838383     0.228306  Biso 1.000000     O
    O   1.0     0.635095     0.179724     0.023632  Biso 1.000000     O
    O   1.0     0.561969     0.222416     0.972041  Biso 1.000000     O
    O   1.0     0.356668     0.951496     0.322996  Biso 1.000000     O
    O   1.0     0.487881     0.049921     0.322552  Biso 1.000000     O
    O   1.0     0.726404     0.049859     0.182456  Biso 1.000000     O
    O   1.0     0.570337     0.961207     0.290119  Biso 1.000000     O
    O   1.0     0.693263    -0.040269     0.948124  Biso 1.000000     O
    O   1.0     0.578458     0.066960     0.911016  Biso 1.000000     O
    O   1.0     0.573372     0.013165     0.151648  Biso 1.000000     O
    O   1.0     0.505030     0.042581     0.059470  Biso 1.000000     O
    K   1.0     0.071697     0.915583     0.984765  Biso 1.000000     K
    K   1.0     0.278318     0.780565     0.844927  Biso 1.000000     K
    K   1.0     0.484550     0.853707     0.000000  Biso 1.000000     K
    K   1.0     0.751487     0.026795     0.047032  Biso 1.000000     K
    K   1.0     0.544868     0.161818     0.186867  Biso 1.000000     K
    K   1.0     0.338639     0.088668     0.012301  Biso 1.000000     K
   Zn   1.0     0.302797     0.860537     0.013803  Biso 1.000000    Zn
   Zn   1.0     0.339363    -0.002198     0.777342  Biso 1.000000    Zn
   Zn   1.0     0.520390     0.081831     0.000000  Biso 1.000000    Zn
   Zn   1.0     0.483818     0.944583     0.254458  Biso 1.000000    Zn
