#======================================================================

# CRYSTAL DATA

#----------------------------------------------------------------------

data_VESTA_phase_1


_pd_phase_name                         MOF
_cell_length_a                         20.99400
_cell_length_b                         18.03800
_cell_length_c                         18.04100
_cell_angle_alpha                      120.02100
_cell_angle_beta                       90.00500
_cell_angle_gamma                      89.98200
_symmetry_space_group_name_H-M         "P 1"
_symmetry_Int_Tables_number            1

loop_
_symmetry_equiv_pos_as_xyz
   "x, y, z"

loop_
   _atom_site_label
   _atom_site_occupancy
   _atom_site_fract_x
   _atom_site_fract_y
   _atom_site_fract_z
   _atom_site_adp_type
   _atom_site_B_iso_or_equiv
   _atom_site_type_symbol
    H   1.0     0.417888     0.551593     0.480129  Biso 1.000000     H
    H   1.0     0.917900     0.551594     0.480131  Biso 1.000000     H
    H   1.0     0.303205     0.625476     0.475301  Biso 1.000000     H
    H   1.0     0.803216     0.625477     0.475302  Biso 1.000000     H
    H   1.0     0.297391     0.522153     0.326470  Biso 1.000000     H
    H   1.0     0.797403     0.522155     0.326471  Biso 1.000000     H
    H   1.0     0.373039     0.402905     0.251389  Biso 1.000000     H
    H   1.0     0.873051     0.402906     0.251390  Biso 1.000000     H
    H   1.0     0.326641     0.388541     0.325331  Biso 1.000000     H
    H   1.0     0.826652     0.388542     0.325331  Biso 1.000000     H
    H   1.0     0.406397     0.422137     0.350485  Biso 1.000000     H
    H   1.0     0.906409     0.422139     0.350486  Biso 1.000000     H
    H   1.0     0.436313     0.579762     0.375338  Biso 1.000000     H
    H   1.0     0.936325     0.579764     0.375340  Biso 1.000000     H
    H   1.0     0.372668     0.644584     0.375220  Biso 1.000000     H
    H   1.0     0.872680     0.644586     0.375222  Biso 1.000000     H
    H   1.0     0.396521     0.553318     0.278152  Biso 1.000000     H
    H   1.0     0.896533     0.553320     0.278154  Biso 1.000000     H
    H   1.0     0.337132     0.886818     0.551933  Biso 1.000000     H
    H   1.0     0.837143     0.886818     0.551935  Biso 1.000000     H
    H   1.0     0.020638     0.790425     0.495209  Biso 1.000000     H
    H   1.0     0.520643     0.790425     0.495209  Biso 1.000000     H
    H   1.0     0.305491     0.782446     0.598015  Biso 1.000000     H
    H   1.0     0.805502     0.782445     0.598016  Biso 1.000000     H
    H   1.0     0.497581     0.682017     0.538012  Biso 1.000000     H
    H   1.0     0.997593     0.682018     0.538014  Biso 1.000000     H
    H   1.0     0.336337     0.667189     0.625740  Biso 1.000000     H
    H   1.0     0.836349     0.667190     0.625742  Biso 1.000000     H
    H   1.0     0.418838     0.645811     0.629095  Biso 1.000000     H
    H   1.0     0.918850     0.645811     0.629097  Biso 1.000000     H
    H   1.0     0.251255     0.928517     0.448543  Biso 1.000000     H
    H   1.0     0.751267     0.928518     0.448544  Biso 1.000000     H
    H   1.0     0.136645     0.849721     0.374734  Biso 1.000000     H
    H   1.0     0.636657     0.849720     0.374734  Biso 1.000000     H
    H   1.0     0.130780     0.804413     0.478175  Biso 1.000000     H
    H   1.0     0.630792     0.804413     0.478175  Biso 1.000000     H
    H   1.0     0.206381     0.848883     0.597512  Biso 1.000000     H
    H   1.0     0.706393     0.848883     0.597511  Biso 1.000000     H
    H   1.0     0.159912     0.937101     0.611659  Biso 1.000000     H
    H   1.0     0.659924     0.937101     0.611659  Biso 1.000000     H
    H   1.0     0.239683     0.928645     0.578103  Biso 1.000000     H
    H   1.0     0.739695     0.928645     0.578104  Biso 1.000000     H
    H   1.0     0.269732     0.795595     0.420621  Biso 1.000000     H
    H   1.0     0.769744     0.795595     0.420622  Biso 1.000000     H
    H   1.0     0.206122     0.730602     0.355801  Biso 1.000000     H
    H   1.0     0.706135     0.730602     0.355801  Biso 1.000000     H
    H   1.0     0.229918     0.724907     0.447099  Biso 1.000000     H
    H   1.0     0.729930     0.724907     0.447099  Biso 1.000000     H
    H   1.0     0.170376     0.665104     0.113458  Biso 1.000000     H
    H   1.0     0.670388     0.665106     0.113457  Biso 1.000000     H
    H   1.0     0.353885     0.704641     0.209745  Biso 1.000000     H
    H   1.0     0.853897     0.704641     0.209745  Biso 1.000000     H
    H   1.0     0.138724     0.815632     0.217937  Biso 1.000000     H
    H   1.0     0.638737     0.815634     0.217936  Biso 1.000000     H
    H   1.0     0.330810     0.855918     0.318237  Biso 1.000000     H
    H   1.0     0.830822     0.855919     0.318238  Biso 1.000000     H
    H   1.0     0.169568     0.958607     0.333165  Biso 1.000000     H
    H   1.0     0.669581     0.958608     0.333166  Biso 1.000000     H
    H   1.0     0.252075     0.983326     0.354392  Biso 1.000000     H
    H   1.0     0.752088     0.983327     0.354393  Biso 1.000000     H
    H   1.0     0.084543     0.519994     0.071557  Biso 1.000000     H
    H   1.0     0.584551     0.519996     0.071556  Biso 1.000000     H
    H   1.0     0.469900     0.524980     0.150292  Biso 1.000000     H
    H   1.0     0.969907     0.524980     0.150292  Biso 1.000000     H
    H   1.0     0.464075     0.673823     0.195694  Biso 1.000000     H
    H   1.0     0.964081     0.673822     0.195693  Biso 1.000000     H
    H   1.0     0.039756     0.748619     0.151275  Biso 1.000000     H
    H   1.0     0.539765     0.748619     0.151274  Biso 1.000000     H
    H   1.0     0.493299     0.674589     0.063053  Biso 1.000000     H
    H   1.0     0.993306     0.674588     0.063054  Biso 1.000000     H
    H   1.0     0.073035     0.649359     0.071500  Biso 1.000000     H
    H   1.0     0.573043     0.649358     0.071499  Biso 1.000000     H
    H   1.0     0.102991     0.624915     0.204499  Biso 1.000000     H
    H   1.0     0.603000     0.624916     0.204496  Biso 1.000000     H
    H   1.0     0.039359     0.625288     0.269546  Biso 1.000000     H
    H   1.0     0.539371     0.625289     0.269546  Biso 1.000000     H
    H   1.0     0.063215     0.722211     0.275131  Biso 1.000000     H
    H   1.0     0.563225     0.722212     0.275129  Biso 1.000000     H
    H   1.0     0.003745     0.448521     0.335035  Biso 1.000000     H
    H   1.0     0.503757     0.448519     0.335035  Biso 1.000000     H
    H   1.0     0.187247     0.505122     0.295389  Biso 1.000000     H
    H   1.0     0.687258     0.505125     0.295391  Biso 1.000000     H
    H   1.0     0.472094     0.402401     0.184555  Biso 1.000000     H
    H   1.0     0.972097     0.402401     0.184555  Biso 1.000000     H
    H   1.0     0.164168     0.462260     0.144145  Biso 1.000000     H
    H   1.0     0.664179     0.462264     0.144147  Biso 1.000000     H
    H   1.0     0.002926     0.374509     0.041556  Biso 1.000000     H
    H   1.0     0.502939     0.374506     0.041555  Biso 1.000000     H
    H   1.0     0.085430     0.370980     0.016798  Biso 1.000000     H
    H   1.0     0.585443     0.370983     0.016800  Biso 1.000000     H
    H   1.0     0.167908     0.448423     0.519885  Biso 1.000000     H
    H   1.0     0.667918     0.448425     0.519887  Biso 1.000000     H
    H   1.0     0.053266     0.374591     0.524754  Biso 1.000000     H
    H   1.0     0.553278     0.374591     0.524755  Biso 1.000000     H
    H   1.0     0.047426     0.477931     0.673567  Biso 1.000000     H
    H   1.0     0.547437     0.477932     0.673568  Biso 1.000000     H
    H   1.0     0.122996     0.597216     0.748626  Biso 1.000000     H
    H   1.0     0.623008     0.597217     0.748627  Biso 1.000000     H
    H   1.0     0.076556     0.611538     0.674678  Biso 1.000000     H
    H   1.0     0.576568     0.611539     0.674679  Biso 1.000000     H
    H   1.0     0.156334     0.577982     0.649522  Biso 1.000000     H
    H   1.0     0.656346     0.577983     0.649523  Biso 1.000000     H
    H   1.0     0.186378     0.420355     0.624684  Biso 1.000000     H
    H   1.0     0.686390     0.420356     0.624685  Biso 1.000000     H
    H   1.0     0.122781     0.355528     0.624826  Biso 1.000000     H
    H   1.0     0.622793     0.355528     0.624827  Biso 1.000000     H
    H   1.0     0.146602     0.446803     0.721880  Biso 1.000000     H
    H   1.0     0.646613     0.446804     0.721881  Biso 1.000000     H
    H   1.0     0.087099     0.113350     0.448210  Biso 1.000000     H
    H   1.0     0.587111     0.113351     0.448210  Biso 1.000000     H
    H   1.0     0.270639     0.209481     0.504792  Biso 1.000000     H
    H   1.0     0.770651     0.209482     0.504795  Biso 1.000000     H
    H   1.0     0.055486     0.217723     0.402088  Biso 1.000000     H
    H   1.0     0.555499     0.217723     0.402087  Biso 1.000000     H
    H   1.0     0.247615     0.317875     0.461936  Biso 1.000000     H
    H   1.0     0.747627     0.317877     0.461940  Biso 1.000000     H
    H   1.0     0.086375     0.332892     0.374272  Biso 1.000000     H
    H   1.0     0.586387     0.332892     0.374273  Biso 1.000000     H
    H   1.0     0.168879     0.354206     0.370929  Biso 1.000000     H
    H   1.0     0.668892     0.354208     0.370931  Biso 1.000000     H
    H   1.0     0.501226     0.071470     0.551472  Biso 1.000000     H
    H   1.0     0.000000     0.071469     0.551474  Biso 1.000000     H
    H   1.0     0.386585     0.150289     0.625303  Biso 1.000000     H
    H   1.0     0.886596     0.150289     0.625303  Biso 1.000000     H
    H   1.0     0.380706     0.195600     0.521849  Biso 1.000000     H
    H   1.0     0.880717     0.195600     0.521848  Biso 1.000000     H
    H   1.0     0.456368     0.151133     0.402561  Biso 1.000000     H
    H   1.0     0.956380     0.151132     0.402560  Biso 1.000000     H
    H   1.0     0.409927     0.062913     0.388379  Biso 1.000000     H
    H   1.0     0.909939     0.062912     0.388379  Biso 1.000000     H
    H   1.0     0.489682     0.071372     0.421997  Biso 1.000000     H
    H   1.0     0.989694     0.071372     0.421998  Biso 1.000000     H
    H   1.0     0.019633     0.204421     0.579479  Biso 1.000000     H
    H   1.0     0.519638     0.204422     0.579479  Biso 1.000000     H
    H   1.0     0.455993     0.269426     0.644260  Biso 1.000000     H
    H   1.0     0.956004     0.269426     0.644260  Biso 1.000000     H
    H   1.0     0.479814     0.275107     0.552967  Biso 1.000000     H
    H   1.0     0.979827     0.275106     0.552967  Biso 1.000000     H
    H   1.0     0.420458     0.334976     0.886629  Biso 1.000000     H
    H   1.0     0.920465     0.334976     0.886629  Biso 1.000000     H
    H   1.0     0.103925     0.295252     0.790187  Biso 1.000000     H
    H   1.0     0.603933     0.295251     0.790188  Biso 1.000000     H
    H   1.0     0.388774     0.184486     0.782167  Biso 1.000000     H
    H   1.0     0.888781     0.184486     0.782168  Biso 1.000000     H
    H   1.0     0.080810     0.144006     0.681693  Biso 1.000000     H
    H   1.0     0.580818     0.144006     0.681693  Biso 1.000000     H
    H   1.0     0.419585     0.041482     0.666928  Biso 1.000000     H
    H   1.0     0.919593     0.041482     0.666927  Biso 1.000000     H
    H   1.0     0.002079     0.016675     0.645647  Biso 1.000000     H
    H   1.0     0.502086     0.016675     0.645646  Biso 1.000000     H
    H   1.0     0.334548     0.479977     0.928426  Biso 1.000000     H
    H   1.0     0.834560     0.479979     0.928427  Biso 1.000000     H
    H   1.0     0.219887     0.475037     0.849707  Biso 1.000000     H
    H   1.0     0.719898     0.475039     0.849708  Biso 1.000000     H
    H   1.0     0.214104     0.326191     0.804268  Biso 1.000000     H
    H   1.0     0.714117     0.326192     0.804268  Biso 1.000000     H
    H   1.0     0.289811     0.251327     0.848630  Biso 1.000000     H
    H   1.0     0.789824     0.251328     0.848630  Biso 1.000000     H
    H   1.0     0.243358     0.325380     0.936885  Biso 1.000000     H
    H   1.0     0.743370     0.325381     0.936885  Biso 1.000000     H
    H   1.0     0.323095     0.350553     0.928402  Biso 1.000000     H
    H   1.0     0.823107     0.350555     0.928402  Biso 1.000000     H
    H   1.0     0.353017     0.375017     0.795425  Biso 1.000000     H
    H   1.0     0.853029     0.375019     0.795425  Biso 1.000000     H
    H   1.0     0.289374     0.374718     0.730416  Biso 1.000000     H
    H   1.0     0.789386     0.374720     0.730416  Biso 1.000000     H
    H   1.0     0.313238     0.277761     0.724792  Biso 1.000000     H
    H   1.0     0.813251     0.277763     0.724792  Biso 1.000000     H
    H   1.0     0.253697     0.551628     0.665036  Biso 1.000000     H
    H   1.0     0.753709     0.551629     0.665037  Biso 1.000000     H
    H   1.0     0.437202     0.494845     0.704609  Biso 1.000000     H
    H   1.0     0.937214     0.494847     0.704610  Biso 1.000000     H
    H   1.0     0.222035     0.597717     0.815511  Biso 1.000000     H
    H   1.0     0.722047     0.597717     0.815511  Biso 1.000000     H
    H   1.0     0.414123     0.537675     0.855843  Biso 1.000000     H
    H   1.0     0.914135     0.537677     0.855844  Biso 1.000000     H
    H   1.0     0.252870     0.625491     0.958474  Biso 1.000000     H
    H   1.0     0.752882     0.625493     0.958475  Biso 1.000000     H
    H   1.0     0.335377     0.628994     0.983219  Biso 1.000000     H
    H   1.0     0.835389     0.628996     0.983220  Biso 1.000000     H
    C   1.0     0.264057     0.512710     0.463816  Biso 1.000000     C
    C   1.0     0.764069     0.512711     0.463817  Biso 1.000000     C
    C   1.0     0.321430     0.560561     0.454258  Biso 1.000000     C
    C   1.0     0.821441     0.560562     0.454259  Biso 1.000000     C
    C   1.0     0.341266     0.522052     0.359681  Biso 1.000000     C
    C   1.0     0.841278     0.522054     0.359682  Biso 1.000000     C
    C   1.0     0.363270     0.428966     0.319819  Biso 1.000000     C
    C   1.0     0.863281     0.428968     0.319820  Biso 1.000000     C
    C   1.0     0.389600     0.578206     0.346973  Biso 1.000000     C
    C   1.0     0.889612     0.578208     0.346975  Biso 1.000000     C
    C   1.0     0.370758     0.840005     0.549994  Biso 1.000000     C
    C   1.0     0.870769     0.840006     0.549996  Biso 1.000000     C
    C   1.0     0.473517     0.785549     0.517497  Biso 1.000000     C
    C   1.0     0.973528     0.785550     0.517499  Biso 1.000000     C
    C   1.0     0.353791     0.781491     0.575354  Biso 1.000000     C
    C   1.0     0.853802     0.781491     0.575355  Biso 1.000000     C
    C   1.0     0.398555     0.721618     0.570231  Biso 1.000000     C
    C   1.0     0.898566     0.721618     0.570232  Biso 1.000000     C
    C   1.0     0.459883     0.725494     0.541870  Biso 1.000000     C
    C   1.0     0.959894     0.725495     0.541871  Biso 1.000000     C
    C   1.0     0.381377     0.652158     0.590063  Biso 1.000000     C
    C   1.0     0.881390     0.652159     0.590065  Biso 1.000000     C
    C   1.0     0.097378     0.951128     0.487359  Biso 1.000000     C
    C   1.0     0.597388     0.951128     0.487358  Biso 1.000000     C
    C   1.0     0.154801     0.893698     0.439644  Biso 1.000000     C
    C   1.0     0.654812     0.893699     0.439644  Biso 1.000000     C
    C   1.0     0.174640     0.837726     0.478251  Biso 1.000000     C
    C   1.0     0.674652     0.837726     0.478251  Biso 1.000000     C
    C   1.0     0.196586     0.891127     0.571320  Biso 1.000000     C
    C   1.0     0.696598     0.891128     0.571320  Biso 1.000000     C
    C   1.0     0.223015     0.768807     0.422174  Biso 1.000000     C
    C   1.0     0.723028     0.768808     0.422174  Biso 1.000000     C
    C   1.0     0.204001     0.709967     0.160255  Biso 1.000000     C
    C   1.0     0.704013     0.709968     0.160255  Biso 1.000000     C
    C   1.0     0.306760     0.731851     0.214652  Biso 1.000000     C
    C   1.0     0.806772     0.731851     0.214653  Biso 1.000000     C
    C   1.0     0.187030     0.793876     0.218814  Biso 1.000000     C
    C   1.0     0.687042     0.793878     0.218814  Biso 1.000000     C
    C   1.0     0.231806     0.848610     0.278637  Biso 1.000000     C
    C   1.0     0.731818     0.848611     0.278638  Biso 1.000000     C
    C   1.0     0.293125     0.816312     0.274746  Biso 1.000000     C
    C   1.0     0.793137     0.816313     0.274746  Biso 1.000000     C
    C   1.0     0.214644     0.937942     0.348095  Biso 1.000000     C
    C   1.0     0.714656     0.937943     0.348096  Biso 1.000000     C
    C   1.0     0.430704     0.536278     0.048932  Biso 1.000000     C
    C   1.0     0.930713     0.536279     0.048931  Biso 1.000000     C
    C   1.0     0.488095     0.545934     0.106369  Biso 1.000000     C
    C   1.0     0.988103     0.545933     0.106369  Biso 1.000000     C
    C   1.0     0.007927     0.640524     0.162382  Biso 1.000000     C
    C   1.0     0.507937     0.640525     0.162382  Biso 1.000000     C
    C   1.0     0.029935     0.680172     0.109014  Biso 1.000000     C
    C   1.0     0.529943     0.680172     0.109013  Biso 1.000000     C
    C   1.0     0.056282     0.653356     0.231286  Biso 1.000000     C
    C   1.0     0.556292     0.653357     0.231285  Biso 1.000000     C
    C   1.0     0.037363     0.450406     0.290154  Biso 1.000000     C
    C   1.0     0.537376     0.450406     0.290153  Biso 1.000000     C
    C   1.0     0.140121     0.482835     0.268210  Biso 1.000000     C
    C   1.0     0.640133     0.482837     0.268211  Biso 1.000000     C
    C   1.0     0.020386     0.425026     0.206269  Biso 1.000000     C
    C   1.0     0.520398     0.425027     0.206269  Biso 1.000000     C
    C   1.0     0.065158     0.430053     0.151509  Biso 1.000000     C
    C   1.0     0.565170     0.430055     0.151510  Biso 1.000000     C
    C   1.0     0.126480     0.458434     0.183769  Biso 1.000000     C
    C   1.0     0.626491     0.458437     0.183770  Biso 1.000000     C
    C   1.0     0.047990     0.410115     0.062182  Biso 1.000000     C
    C   1.0     0.548002     0.410116     0.062182  Biso 1.000000     C
    C   1.0     0.014053     0.487331     0.536195  Biso 1.000000     C
    C   1.0     0.514062     0.487329     0.536194  Biso 1.000000     C
    C   1.0     0.071456     0.439501     0.545771  Biso 1.000000     C
    C   1.0     0.571467     0.439501     0.545771  Biso 1.000000     C
    C   1.0     0.091289     0.478041     0.640350  Biso 1.000000     C
    C   1.0     0.591300     0.478041     0.640351  Biso 1.000000     C
    C   1.0     0.113226     0.571135     0.680194  Biso 1.000000     C
    C   1.0     0.613237     0.571136     0.680195  Biso 1.000000     C
    C   1.0     0.139674     0.421908     0.653060  Biso 1.000000     C
    C   1.0     0.639685     0.421908     0.653060  Biso 1.000000     C
    C   1.0     0.120737     0.160106     0.450110  Biso 1.000000     C
    C   1.0     0.620750     0.160106     0.450109  Biso 1.000000     C
    C   1.0     0.223514     0.214417     0.482524  Biso 1.000000     C
    C   1.0     0.723527     0.214418     0.482526  Biso 1.000000     C
    C   1.0     0.103787     0.218619     0.424726  Biso 1.000000     C
    C   1.0     0.603800     0.218619     0.424726  Biso 1.000000     C
    C   1.0     0.148571     0.278415     0.429792  Biso 1.000000     C
    C   1.0     0.648584     0.278415     0.429793  Biso 1.000000     C
    C   1.0     0.209900     0.274463     0.458123  Biso 1.000000     C
    C   1.0     0.709912     0.274464     0.458125  Biso 1.000000     C
    C   1.0     0.131409     0.347885     0.409953  Biso 1.000000     C
    C   1.0     0.631421     0.347886     0.409954  Biso 1.000000     C
    C   1.0     0.347366     0.048888     0.512660  Biso 1.000000     C
    C   1.0     0.847377     0.048889     0.512661  Biso 1.000000     C
    C   1.0     0.404762     0.106316     0.560394  Biso 1.000000     C
    C   1.0     0.904773     0.106316     0.560394  Biso 1.000000     C
    C   1.0     0.424580     0.162293     0.521798  Biso 1.000000     C
    C   1.0     0.924591     0.162293     0.521798  Biso 1.000000     C
    C   1.0     0.446572     0.108888     0.428744  Biso 1.000000     C
    C   1.0     0.946584     0.108888     0.428744  Biso 1.000000     C
    C   1.0     0.472916     0.231214     0.577897  Biso 1.000000     C
    C   1.0     0.972927     0.231214     0.577897  Biso 1.000000     C
    C   1.0     0.454065     0.290076     0.839800  Biso 1.000000     C
    C   1.0     0.954073     0.290076     0.839799  Biso 1.000000     C
    C   1.0     0.056798     0.268094     0.785318  Biso 1.000000     C
    C   1.0     0.556807     0.268094     0.785318  Biso 1.000000     C
    C   1.0     0.437077     0.206189     0.781250  Biso 1.000000     C
    C   1.0     0.937085     0.206188     0.781250  Biso 1.000000     C
    C   1.0     0.481834     0.151412     0.721386  Biso 1.000000     C
    C   1.0     0.981843     0.151412     0.721388  Biso 1.000000     C
    C   1.0     0.043144     0.183650     0.725227  Biso 1.000000     C
    C   1.0     0.543152     0.183650     0.725227  Biso 1.000000     C
    C   1.0     0.464654     0.062092     0.651953  Biso 1.000000     C
    C   1.0     0.964663     0.062092     0.651954  Biso 1.000000     C
    C   1.0     0.180709     0.463713     0.951053  Biso 1.000000     C
    C   1.0     0.680720     0.463714     0.951053  Biso 1.000000     C
    C   1.0     0.238096     0.454058     0.893612  Biso 1.000000     C
    C   1.0     0.738108     0.454059     0.893612  Biso 1.000000     C
    C   1.0     0.257963     0.359464     0.837572  Biso 1.000000     C
    C   1.0     0.757975     0.359466     0.837572  Biso 1.000000     C
    C   1.0     0.279991     0.319780     0.890910  Biso 1.000000     C
    C   1.0     0.780003     0.319781     0.890909  Biso 1.000000     C
    C   1.0     0.306306     0.346620     0.768655  Biso 1.000000     C
    C   1.0     0.806318     0.346621     0.768655  Biso 1.000000     C
    C   1.0     0.287318     0.549694     0.709897  Biso 1.000000     C
    C   1.0     0.787331     0.549696     0.709898  Biso 1.000000     C
    C   1.0     0.390076     0.517165     0.731801  Biso 1.000000     C
    C   1.0     0.890088     0.517167     0.731803  Biso 1.000000     C
    C   1.0     0.270341     0.575056     0.793778  Biso 1.000000     C
    C   1.0     0.770353     0.575057     0.793779  Biso 1.000000     C
    C   1.0     0.315111     0.569965     0.848514  Biso 1.000000     C
    C   1.0     0.815123     0.569966     0.848515  Biso 1.000000     C
    C   1.0     0.376434     0.541546     0.816237  Biso 1.000000     C
    C   1.0     0.876446     0.541547     0.816237  Biso 1.000000     C
    C   1.0     0.297946     0.589876     0.937833  Biso 1.000000     C
    C   1.0     0.797958     0.589877     0.937834  Biso 1.000000     C
    N   1.0     0.374586     0.566511     0.511507  Biso 1.000000     N
    N   1.0     0.874597     0.566512     0.511509  Biso 1.000000     N
    N   1.0     0.429451     0.841790     0.520367  Biso 1.000000     N
    N   1.0     0.929462     0.841791     0.520369  Biso 1.000000     N
    N   1.0     0.207933     0.945016     0.433711  Biso 1.000000     N
    N   1.0     0.707945     0.945017     0.433711  Biso 1.000000     N
    N   1.0     0.262704     0.678512     0.158394  Biso 1.000000     N
    N   1.0     0.762716     0.678513     0.158395  Biso 1.000000     N
    N   1.0     0.041240     0.488637     0.055061  Biso 1.000000     N
    N   1.0     0.541249     0.488637     0.055061  Biso 1.000000     N
    N   1.0     0.096071     0.479964     0.321564  Biso 1.000000     N
    N   1.0     0.596083     0.479965     0.321565  Biso 1.000000     N
    N   1.0     0.124606     0.433535     0.488515  Biso 1.000000     N
    N   1.0     0.624617     0.433536     0.488516  Biso 1.000000     N
    N   1.0     0.179432     0.158250     0.479707  Biso 1.000000     N
    N   1.0     0.679444     0.158251     0.479707  Biso 1.000000     N
    N   1.0     0.457916     0.054993     0.566331  Biso 1.000000     N
    N   1.0     0.957927     0.054993     0.566331  Biso 1.000000     N
    N   1.0     0.012757     0.321472     0.841615  Biso 1.000000     N
    N   1.0     0.512766     0.321472     0.841615  Biso 1.000000     N
    N   1.0     0.291233     0.511340     0.944926  Biso 1.000000     N
    N   1.0     0.791245     0.511341     0.944927  Biso 1.000000     N
    N   1.0     0.346027     0.520093     0.678467  Biso 1.000000     N
    N   1.0     0.846039     0.520095     0.678468  Biso 1.000000     N
    O   1.0     0.266462     0.487367     0.518384  Biso 1.000000     O
    O   1.0     0.766472     0.487367     0.518384  Biso 1.000000     O
    O   1.0     0.216953     0.503209     0.416097  Biso 1.000000     O
    O   1.0     0.716964     0.503211     0.416099  Biso 1.000000     O
    O   1.0     0.099761     0.031046     0.512689  Biso 1.000000     O
    O   1.0     0.599772     0.031046     0.512690  Biso 1.000000     O
    O   1.0     0.050282     0.912923     0.496878  Biso 1.000000     O
    O   1.0     0.550292     0.912924     0.496878  Biso 1.000000     O
    O   1.0     0.433129     0.481654     0.969010  Biso 1.000000     O
    O   1.0     0.933137     0.481653     0.969009  Biso 1.000000     O
    O   1.0     0.383585     0.584021     0.087130  Biso 1.000000     O
    O   1.0     0.883593     0.584021     0.087129  Biso 1.000000     O
    O   1.0     0.016451     0.512705     0.481651  Biso 1.000000     O
    O   1.0     0.516461     0.512706     0.481652  Biso 1.000000     O
    O   1.0     0.466959     0.496830     0.583913  Biso 1.000000     O
    O   1.0     0.966966     0.496832     0.583914  Biso 1.000000     O
    O   1.0     0.349782     0.968977     0.487360  Biso 1.000000     O
    O   1.0     0.849792     0.968977     0.487360  Biso 1.000000     O
    O   1.0     0.300251     0.087100     0.503149  Biso 1.000000     O
    O   1.0     0.800262     0.087100     0.503149  Biso 1.000000     O
    O   1.0     0.183120     0.518341     0.030975  Biso 1.000000     O
    O   1.0     0.683130     0.518343     0.030974  Biso 1.000000     O
    O   1.0     0.133606     0.415976     0.912859  Biso 1.000000     O
    O   1.0     0.633617     0.415978     0.912859  Biso 1.000000     O
   Zn   1.0     0.366776     0.473667     0.549925  Biso 1.000000    Zn
   Zn   1.0     0.866784     0.473667     0.549925  Biso 1.000000    Zn
   Zn   1.0     0.200102     0.076318     0.526390  Biso 1.000000    Zn
   Zn   1.0     0.700112     0.076318     0.526391  Biso 1.000000    Zn
   Zn   1.0     0.033451     0.450057     0.923751  Biso 1.000000    Zn
   Zn   1.0     0.533460     0.450056     0.923751  Biso 1.000000    Zn
   Zn   1.0     0.116779     0.526387     0.450110  Biso 1.000000    Zn
   Zn   1.0     0.616789     0.526388     0.450111  Biso 1.000000    Zn
   Zn   1.0     0.450119     0.923687     0.473659  Biso 1.000000    Zn
   Zn   1.0     0.950128     0.923686     0.473660  Biso 1.000000    Zn
   Zn   1.0     0.283442     0.549917     0.076233  Biso 1.000000    Zn
   Zn   1.0     0.783451     0.549918     0.076233  Biso 1.000000    Zn
   Br   1.0     0.380138     0.323434     0.457127  Biso 1.000000    Br
   Br   1.0     0.880151     0.323434     0.457128  Biso 1.000000    Br
   Br   1.0     0.213360     0.134024     0.676610  Biso 1.000000    Br
   Br   1.0     0.713372     0.134024     0.676611  Biso 1.000000    Br
   Br   1.0     0.046708     0.542612     0.866099  Biso 1.000000    Br
   Br   1.0     0.546717     0.542611     0.866099  Biso 1.000000    Br
   Br   1.0     0.130097     0.676621     0.542873  Biso 1.000000    Br
   Br   1.0     0.630107     0.676622     0.542873  Biso 1.000000    Br
   Br   1.0     0.463353     0.865966     0.323431  Biso 1.000000    Br
   Br   1.0     0.963364     0.865965     0.323432  Biso 1.000000    Br
   Br   1.0     0.296770     0.457326     0.133839  Biso 1.000000    Br
   Br   1.0     0.796782     0.457328     0.133840  Biso 1.000000    Br
