#======================================================================

# CRYSTAL DATA

#----------------------------------------------------------------------

data_VESTA_phase_1


_pd_phase_name                         MOF
_cell_length_a                         21.15000
_cell_length_b                         17.81800
_cell_length_c                         17.81100
_cell_angle_alpha                      119.92800
_cell_angle_beta                       89.99300
_cell_angle_gamma                      89.99700
_symmetry_space_group_name_H-M         "P 1"
_symmetry_Int_Tables_number            1

loop_
_symmetry_equiv_pos_as_xyz
   "x, y, z"

loop_
   _atom_site_label
   _atom_site_occupancy
   _atom_site_fract_x
   _atom_site_fract_y
   _atom_site_fract_z
   _atom_site_adp_type
   _atom_site_B_iso_or_equiv
   _atom_site_type_symbol
    H   1.0     0.365928     0.522961     0.070586  Biso 1.000000     H
    H   1.0     0.865931     0.522857     0.070649  Biso 1.000000     H
    H   1.0     0.467406     0.511386     0.297603  Biso 1.000000     H
    H   1.0     0.967440     0.511365     0.297628  Biso 1.000000     H
    H   1.0     0.286515     0.447952     0.335287  Biso 1.000000     H
    H   1.0     0.786494     0.448305     0.335545  Biso 1.000000     H
    H   1.0     0.255902     0.399425     0.182269  Biso 1.000000     H
    H   1.0     0.755848     0.399641     0.182506  Biso 1.000000     H
    H   1.0     0.254918     0.527513     0.153562  Biso 1.000000     H
    H   1.0     0.754931     0.527573     0.153708  Biso 1.000000     H
    H   1.0     0.244487     0.677223     0.193733  Biso 1.000000     H
    H   1.0     0.744631     0.677292     0.193844  Biso 1.000000     H
    H   1.0     0.354357     0.652767     0.070298  Biso 1.000000     H
    H   1.0     0.854390     0.652491     0.070132  Biso 1.000000     H
    H   1.0     0.318138     0.752374     0.146844  Biso 1.000000     H
    H   1.0     0.818405     0.752237     0.146797  Biso 1.000000     H
    H   1.0     0.274900     0.673104     0.056621  Biso 1.000000     H
    H   1.0     0.774956     0.673150     0.056710  Biso 1.000000     H
    H   1.0     0.368219     0.372387     0.013858  Biso 1.000000     H
    H   1.0     0.868148     0.372287     0.013941  Biso 1.000000     H
    H   1.0     0.286399     0.373897     0.038270  Biso 1.000000     H
    H   1.0     0.786334     0.373878     0.038429  Biso 1.000000     H
    H   1.0     0.319098     0.633528     0.272993  Biso 1.000000     H
    H   1.0     0.819281     0.633468     0.272983  Biso 1.000000     H
    H   1.0     0.341863     0.730599     0.275829  Biso 1.000000     H
    H   1.0     0.842096     0.730493     0.275759  Biso 1.000000     H
    H   1.0     0.382740     0.632307     0.207351  Biso 1.000000     H
    H   1.0     0.882866     0.632134     0.207209  Biso 1.000000     H
    H   1.0     0.445374     0.466299     0.143930  Biso 1.000000     H
    H   1.0     0.945386     0.466113     0.143919  Biso 1.000000     H
    H   1.0     0.199474     0.547668     0.476958  Biso 1.000000     H
    H   1.0     0.699393     0.547532     0.476818  Biso 1.000000     H
    H   1.0     0.301006     0.787004     0.489786  Biso 1.000000     H
    H   1.0     0.800900     0.786750     0.489642  Biso 1.000000     H
    H   1.0     0.119975     0.887526     0.553131  Biso 1.000000     H
    H   1.0     0.619956     0.887548     0.553321  Biso 1.000000     H
    H   1.0     0.089401     0.782527     0.601118  Biso 1.000000     H
    H   1.0     0.589344     0.782500     0.601234  Biso 1.000000     H
    H   1.0     0.088628     0.626418     0.472534  Biso 1.000000     H
    H   1.0     0.588464     0.626208     0.472517  Biso 1.000000     H
    H   1.0     0.078165     0.517583     0.322718  Biso 1.000000     H
    H   1.0     0.577963     0.517460     0.322694  Biso 1.000000     H
    H   1.0     0.187603     0.417740     0.346751  Biso 1.000000     H
    H   1.0     0.687565     0.417630     0.346393  Biso 1.000000     H
    H   1.0     0.151511     0.395467     0.247217  Biso 1.000000     H
    H   1.0     0.651255     0.395388     0.246992  Biso 1.000000     H
    H   1.0     0.108066     0.384200     0.326258  Biso 1.000000     H
    H   1.0     0.608024     0.384067     0.326155  Biso 1.000000     H
    H   1.0     0.201768     0.640852     0.627579  Biso 1.000000     H
    H   1.0     0.701678     0.640660     0.627469  Biso 1.000000     H
    H   1.0     0.119960     0.663869     0.626252  Biso 1.000000     H
    H   1.0     0.619861     0.663631     0.626139  Biso 1.000000     H
    H   1.0     0.153163     0.640089     0.366778  Biso 1.000000     H
    H   1.0     0.652881     0.640039     0.366723  Biso 1.000000     H
    H   1.0     0.175771     0.546091     0.269509  Biso 1.000000     H
    H   1.0     0.675458     0.546098     0.269385  Biso 1.000000     H
    H   1.0     0.216550     0.575230     0.367757  Biso 1.000000     H
    H   1.0     0.716343     0.575209     0.367558  Biso 1.000000     H
    H   1.0     0.279004     0.677904     0.534283  Biso 1.000000     H
    H   1.0     0.778848     0.677603     0.534062  Biso 1.000000     H
    H   1.0     0.032754     0.929287     0.452911  Biso 1.000000     H
    H   1.0     0.532757     0.929340     0.452818  Biso 1.000000     H
    H   1.0     0.134266     0.702015     0.213613  Biso 1.000000     H
    H   1.0     0.634277     0.702033     0.213363  Biso 1.000000     H
    H   1.0     0.453079     0.664906     0.113396  Biso 1.000000     H
    H   1.0     0.953167     0.665057     0.113313  Biso 1.000000     H
    H   1.0     0.422649     0.817811     0.218078  Biso 1.000000     H
    H   1.0     0.922750     0.817974     0.218004  Biso 1.000000     H
    H   1.0     0.421702     0.846512     0.374325  Biso 1.000000     H
    H   1.0     0.921755     0.846375     0.374295  Biso 1.000000     H
    H   1.0     0.411257     0.805847     0.483522  Biso 1.000000     H
    H   1.0     0.911227     0.805747     0.483533  Biso 1.000000     H
    H   1.0     0.020915     0.929111     0.582917  Biso 1.000000     H
    H   1.0     0.520920     0.929257     0.582880  Biso 1.000000     H
    H   1.0     0.484771     0.852270     0.605527  Biso 1.000000     H
    H   1.0     0.984644     0.852214     0.605605  Biso 1.000000     H
    H   1.0     0.441411     0.942543     0.616675  Biso 1.000000     H
    H   1.0     0.941370     0.942508     0.616645  Biso 1.000000     H
    H   1.0     0.035471     0.985787     0.358864  Biso 1.000000     H
    H   1.0     0.535447     0.985739     0.358679  Biso 1.000000     H
    H   1.0     0.453605     0.961728     0.335692  Biso 1.000000     H
    H   1.0     0.953626     0.961764     0.335823  Biso 1.000000     H
    H   1.0     0.486187     0.727209     0.360817  Biso 1.000000     H
    H   1.0     0.986162     0.727034     0.360873  Biso 1.000000     H
    H   1.0     0.008560     0.723680     0.455013  Biso 1.000000     H
    H   1.0     0.508585     0.723785     0.454918  Biso 1.000000     H
    H   1.0     0.049656     0.792513     0.425717  Biso 1.000000     H
    H   1.0     0.549664     0.792677     0.425686  Biso 1.000000     H
    H   1.0     0.112429     0.855546     0.322387  Biso 1.000000     H
    H   1.0     0.612450     0.855565     0.322104  Biso 1.000000     H
    H   1.0     0.115904     0.477042     0.929387  Biso 1.000000     H
    H   1.0     0.615975     0.477017     0.929347  Biso 1.000000     H
    H   1.0     0.217325     0.488597     0.702365  Biso 1.000000     H
    H   1.0     0.717443     0.488684     0.702306  Biso 1.000000     H
    H   1.0     0.036439     0.552047     0.664678  Biso 1.000000     H
    H   1.0     0.536427     0.551635     0.664522  Biso 1.000000     H
    H   1.0     0.005776     0.600516     0.817678  Biso 1.000000     H
    H   1.0     0.505814     0.600222     0.817563  Biso 1.000000     H
    H   1.0     0.004852     0.472377     0.846474  Biso 1.000000     H
    H   1.0     0.505007     0.472373     0.846312  Biso 1.000000     H
    H   1.0     0.494676     0.322662     0.806087  Biso 1.000000     H
    H   1.0     0.994528     0.322686     0.806266  Biso 1.000000     H
    H   1.0     0.104319     0.347182     0.929803  Biso 1.000000     H
    H   1.0     0.604350     0.347294     0.929819  Biso 1.000000     H
    H   1.0     0.068195     0.247549     0.853174  Biso 1.000000     H
    H   1.0     0.568359     0.247598     0.853089  Biso 1.000000     H
    H   1.0     0.024856     0.326740     0.943350  Biso 1.000000     H
    H   1.0     0.524893     0.326684     0.943185  Biso 1.000000     H
    H   1.0     0.118033     0.627657     0.986115  Biso 1.000000     H
    H   1.0     0.618204     0.627583     0.986047  Biso 1.000000     H
    H   1.0     0.036213     0.625976     0.961655  Biso 1.000000     H
    H   1.0     0.536381     0.626043     0.961658  Biso 1.000000     H
    H   1.0     0.069210     0.366488     0.727121  Biso 1.000000     H
    H   1.0     0.569413     0.366520     0.727050  Biso 1.000000     H
    H   1.0     0.091948     0.269376     0.724222  Biso 1.000000     H
    H   1.0     0.592175     0.269437     0.724204  Biso 1.000000     H
    H   1.0     0.132804     0.367642     0.792779  Biso 1.000000     H
    H   1.0     0.632951     0.367750     0.792825  Biso 1.000000     H
    H   1.0     0.195250     0.533651     0.856024  Biso 1.000000     H
    H   1.0     0.695429     0.533862     0.856008  Biso 1.000000     H
    H   1.0     0.449382     0.452357     0.523065  Biso 1.000000     H
    H   1.0     0.949433     0.452466     0.523098  Biso 1.000000     H
    H   1.0     0.050974     0.213066     0.510200  Biso 1.000000     H
    H   1.0     0.551146     0.213331     0.510268  Biso 1.000000     H
    H   1.0     0.370172     0.112626     0.447201  Biso 1.000000     H
    H   1.0     0.869929     0.112626     0.446892  Biso 1.000000     H
    H   1.0     0.339422     0.217491     0.399118  Biso 1.000000     H
    H   1.0     0.839380     0.217647     0.398924  Biso 1.000000     H
    H   1.0     0.338473     0.373732     0.527488  Biso 1.000000     H
    H   1.0     0.838559     0.373699     0.527380  Biso 1.000000     H
    H   1.0     0.327947     0.482518     0.677266  Biso 1.000000     H
    H   1.0     0.827990     0.482416     0.677182  Biso 1.000000     H
    H   1.0     0.437410     0.582448     0.653434  Biso 1.000000     H
    H   1.0     0.937406     0.582463     0.653426  Biso 1.000000     H
    H   1.0     0.401160     0.604702     0.752890  Biso 1.000000     H
    H   1.0     0.901177     0.604638     0.752867  Biso 1.000000     H
    H   1.0     0.357839     0.615892     0.673724  Biso 1.000000     H
    H   1.0     0.857829     0.615864     0.673741  Biso 1.000000     H
    H   1.0     0.451577     0.359145     0.372341  Biso 1.000000     H
    H   1.0     0.951842     0.359295     0.372486  Biso 1.000000     H
    H   1.0     0.369793     0.336148     0.373912  Biso 1.000000     H
    H   1.0     0.870022     0.336295     0.373711  Biso 1.000000     H
    H   1.0     0.402953     0.360059     0.633336  Biso 1.000000     H
    H   1.0     0.903047     0.360001     0.633203  Biso 1.000000     H
    H   1.0     0.425502     0.454069     0.730606  Biso 1.000000     H
    H   1.0     0.925574     0.454000     0.730504  Biso 1.000000     H
    H   1.0     0.466359     0.424893     0.632382  Biso 1.000000     H
    H   1.0     0.966425     0.424904     0.632297  Biso 1.000000     H
    H   1.0     0.028999     0.322172     0.465711  Biso 1.000000     H
    H   1.0     0.528955     0.322340     0.465701  Biso 1.000000     H
    H   1.0     0.282723     0.070819     0.547177  Biso 1.000000     H
    H   1.0     0.782789     0.070635     0.547133  Biso 1.000000     H
    H   1.0     0.384338     0.297879     0.786460  Biso 1.000000     H
    H   1.0     0.884216     0.297884     0.786432  Biso 1.000000     H
    H   1.0     0.203218     0.334956     0.886748  Biso 1.000000     H
    H   1.0     0.703189     0.334797     0.886992  Biso 1.000000     H
    H   1.0     0.172791     0.182058     0.782062  Biso 1.000000     H
    H   1.0     0.672751     0.181926     0.782206  Biso 1.000000     H
    H   1.0     0.171704     0.153659     0.625851  Biso 1.000000     H
    H   1.0     0.671743     0.153584     0.625696  Biso 1.000000     H
    H   1.0     0.161167     0.194286     0.516576  Biso 1.000000     H
    H   1.0     0.661372     0.194297     0.516492  Biso 1.000000     H
    H   1.0     0.271031     0.071159     0.417360  Biso 1.000000     H
    H   1.0     0.771108     0.070932     0.417236  Biso 1.000000     H
    H   1.0     0.234637     0.147904     0.394572  Biso 1.000000     H
    H   1.0     0.734996     0.147950     0.394599  Biso 1.000000     H
    H   1.0     0.191525     0.057487     0.383507  Biso 1.000000     H
    H   1.0     0.691624     0.057652     0.383352  Biso 1.000000     H
    H   1.0     0.285492     0.014181     0.641105  Biso 1.000000     H
    H   1.0     0.785390     0.014139     0.641191  Biso 1.000000     H
    H   1.0     0.203666     0.038248     0.664265  Biso 1.000000     H
    H   1.0     0.703556     0.038235     0.664202  Biso 1.000000     H
    H   1.0     0.236009     0.273064     0.639334  Biso 1.000000     H
    H   1.0     0.736186     0.272941     0.639303  Biso 1.000000     H
    H   1.0     0.258403     0.276495     0.545229  Biso 1.000000     H
    H   1.0     0.758675     0.276399     0.545246  Biso 1.000000     H
    H   1.0     0.299555     0.207682     0.574503  Biso 1.000000     H
    H   1.0     0.799720     0.207515     0.574512  Biso 1.000000     H
    H   1.0     0.362490     0.144355     0.677672  Biso 1.000000     H
    H   1.0     0.862357     0.144407     0.677565  Biso 1.000000     H
    C   1.0     0.421087     0.487015     0.269368  Biso 1.000000     C
    C   1.0     0.921107     0.487026     0.269430  Biso 1.000000     C
    C   1.0     0.319811     0.450712     0.290186  Biso 1.000000     C
    C   1.0     0.819793     0.450943     0.290382  Biso 1.000000     C
    C   1.0     0.303418     0.424059     0.204914  Biso 1.000000     C
    C   1.0     0.803385     0.424206     0.205099  Biso 1.000000     C
    C   1.0     0.270260     0.547685     0.107118  Biso 1.000000     C
    C   1.0     0.770279     0.547676     0.107215  Biso 1.000000     C
    C   1.0     0.211459     0.534840     0.050890  Biso 1.000000     C
    C   1.0     0.711468     0.534844     0.051003  Biso 1.000000     C
    C   1.0     0.288570     0.644185     0.161476  Biso 1.000000     C
    C   1.0     0.788667     0.644155     0.161508  Biso 1.000000     C
    C   1.0     0.310333     0.682416     0.105615  Biso 1.000000     C
    C   1.0     0.810445     0.682311     0.105588  Biso 1.000000     C
    C   1.0     0.347671     0.430651     0.150089  Biso 1.000000     C
    C   1.0     0.847653     0.430635     0.150196  Biso 1.000000     C
    C   1.0     0.330726     0.410823     0.059770  Biso 1.000000     C
    C   1.0     0.830680     0.410762     0.059878  Biso 1.000000     C
    C   1.0     0.335977     0.660521     0.232964  Biso 1.000000     C
    C   1.0     0.836137     0.660424     0.232912  Biso 1.000000     C
    C   1.0     0.408018     0.461462     0.183563  Biso 1.000000     C
    C   1.0     0.908026     0.461374     0.183605  Biso 1.000000     C
    C   1.0     0.254666     0.782889     0.514002  Biso 1.000000     C
    C   1.0     0.754567     0.782686     0.513908  Biso 1.000000     C
    C   1.0     0.153313     0.839681     0.550261  Biso 1.000000     C
    C   1.0     0.653265     0.839630     0.550357  Biso 1.000000     C
    C   1.0     0.136938     0.780779     0.576603  Biso 1.000000     C
    C   1.0     0.636867     0.780698     0.576654  Biso 1.000000     C
    C   1.0     0.103839     0.559795     0.452262  Biso 1.000000     C
    C   1.0     0.603734     0.559588     0.452171  Biso 1.000000     C
    C   1.0     0.044908     0.516529     0.465022  Biso 1.000000     C
    C   1.0     0.544859     0.516216     0.464911  Biso 1.000000     C
    C   1.0     0.122174     0.517973     0.355733  Biso 1.000000     C
    C   1.0     0.622015     0.517858     0.355632  Biso 1.000000     C
    C   1.0     0.143673     0.423841     0.317174  Biso 1.000000     C
    C   1.0     0.643552     0.423731     0.316971  Biso 1.000000     C
    C   1.0     0.181233     0.719365     0.569823  Biso 1.000000     C
    C   1.0     0.681125     0.719195     0.569753  Biso 1.000000     C
    C   1.0     0.164275     0.648614     0.589281  Biso 1.000000     C
    C   1.0     0.664177     0.648417     0.589176  Biso 1.000000     C
    C   1.0     0.169829     0.573024     0.339591  Biso 1.000000     C
    C   1.0     0.669586     0.572983     0.339471  Biso 1.000000     C
    C   1.0     0.241613     0.722348     0.539224  Biso 1.000000     C
    C   1.0     0.741489     0.722115     0.539080  Biso 1.000000     C
    C   1.0     0.087954     0.730387     0.217706  Biso 1.000000     C
    C   1.0     0.587940     0.730371     0.217527  Biso 1.000000     C
    C   1.0     0.486487     0.709854     0.161044  Biso 1.000000     C
    C   1.0     0.986555     0.709968     0.161028  Biso 1.000000     C
    C   1.0     0.470197     0.795053     0.219769  Biso 1.000000     C
    C   1.0     0.970268     0.795166     0.219758  Biso 1.000000     C
    C   1.0     0.437072     0.892819     0.440862  Biso 1.000000     C
    C   1.0     0.937072     0.892685     0.440859  Biso 1.000000     C
    C   1.0     0.378270     0.949082     0.484162  Biso 1.000000     C
    C   1.0     0.878238     0.948904     0.484082  Biso 1.000000     C
    C   1.0     0.455329     0.838236     0.482921  Biso 1.000000     C
    C   1.0     0.955310     0.838117     0.482939  Biso 1.000000     C
    C   1.0     0.476943     0.893771     0.577009  Biso 1.000000     C
    C   1.0     0.976892     0.893687     0.577038  Biso 1.000000     C
    C   1.0     0.014656     0.849750     0.280961  Biso 1.000000     C
    C   1.0     0.514610     0.849699     0.280867  Biso 1.000000     C
    C   1.0     0.497808     0.940010     0.351227  Biso 1.000000     C
    C   1.0     0.997824     0.940030     0.351350  Biso 1.000000     C
    C   1.0     0.002844     0.766792     0.427954  Biso 1.000000     C
    C   1.0     0.502857     0.766932     0.427902  Biso 1.000000     C
    C   1.0     0.074989     0.816103     0.278074  Biso 1.000000     C
    C   1.0     0.574976     0.816094     0.277881  Biso 1.000000     C
    C   1.0     0.170997     0.512968     0.730596  Biso 1.000000     C
    C   1.0     0.671101     0.512977     0.730531  Biso 1.000000     C
    C   1.0     0.069724     0.549271     0.709774  Biso 1.000000     C
    C   1.0     0.569752     0.548998     0.709652  Biso 1.000000     C
    C   1.0     0.053303     0.575898     0.795040  Biso 1.000000     C
    C   1.0     0.553363     0.575699     0.794942  Biso 1.000000     C
    C   1.0     0.020240     0.452234     0.892920  Biso 1.000000     C
    C   1.0     0.520331     0.452236     0.892787  Biso 1.000000     C
    C   1.0     0.461493     0.465083     0.948975  Biso 1.000000     C
    C   1.0     0.961450     0.465045     0.949191  Biso 1.000000     C
    C   1.0     0.038596     0.355745     0.838567  Biso 1.000000     C
    C   1.0     0.538709     0.355751     0.838450  Biso 1.000000     C
    C   1.0     0.060334     0.317496     0.894419  Biso 1.000000     C
    C   1.0     0.560415     0.317526     0.894334  Biso 1.000000     C
    C   1.0     0.097544     0.569304     0.849867  Biso 1.000000     C
    C   1.0     0.597661     0.569285     0.849814  Biso 1.000000     C
    C   1.0     0.080585     0.589134     0.940191  Biso 1.000000     C
    C   1.0     0.580722     0.589134     0.940148  Biso 1.000000     C
    C   1.0     0.086051     0.339450     0.767125  Biso 1.000000     C
    C   1.0     0.586225     0.339504     0.767085  Biso 1.000000     C
    C   1.0     0.157903     0.538502     0.816396  Biso 1.000000     C
    C   1.0     0.658041     0.538592     0.816359  Biso 1.000000     C
    C   1.0     0.004639     0.217201     0.485996  Biso 1.000000     C
    C   1.0     0.504773     0.217380     0.486105  Biso 1.000000     C
    C   1.0     0.403445     0.160491     0.449983  Biso 1.000000     C
    C   1.0     0.903274     0.160458     0.449760  Biso 1.000000     C
    C   1.0     0.386979     0.219322     0.423595  Biso 1.000000     C
    C   1.0     0.886914     0.219374     0.423425  Biso 1.000000     C
    C   1.0     0.353723     0.440340     0.547769  Biso 1.000000     C
    C   1.0     0.853777     0.440328     0.547705  Biso 1.000000     C
    C   1.0     0.294844     0.483688     0.535012  Biso 1.000000     C
    C   1.0     0.794870     0.483635     0.534952  Biso 1.000000     C
    C   1.0     0.371988     0.482154     0.644310  Biso 1.000000     C
    C   1.0     0.872029     0.482105     0.644248  Biso 1.000000     C
    C   1.0     0.393436     0.576304     0.682911  Biso 1.000000     C
    C   1.0     0.893442     0.576273     0.682894  Biso 1.000000     C
    C   1.0     0.431211     0.280752     0.430278  Biso 1.000000     C
    C   1.0     0.931219     0.280766     0.430193  Biso 1.000000     C
    C   1.0     0.414154     0.351434     0.410767  Biso 1.000000     C
    C   1.0     0.914302     0.351533     0.410735  Biso 1.000000     C
    C   1.0     0.419615     0.427120     0.660516  Biso 1.000000     C
    C   1.0     0.919685     0.427077     0.660419  Biso 1.000000     C
    C   1.0     0.491621     0.277863     0.460836  Biso 1.000000     C
    C   1.0     0.991589     0.277750     0.460780  Biso 1.000000     C
    C   1.0     0.338018     0.269532     0.782362  Biso 1.000000     C
    C   1.0     0.837912     0.269514     0.782376  Biso 1.000000     C
    C   1.0     0.236610     0.290021     0.839033  Biso 1.000000     C
    C   1.0     0.736558     0.289907     0.839197  Biso 1.000000     C
    C   1.0     0.220317     0.204836     0.780304  Biso 1.000000     C
    C   1.0     0.720258     0.204738     0.780414  Biso 1.000000     C
    C   1.0     0.187041     0.107380     0.559278  Biso 1.000000     C
    C   1.0     0.687116     0.107296     0.559143  Biso 1.000000     C
    C   1.0     0.128232     0.051143     0.516023  Biso 1.000000     C
    C   1.0     0.628300     0.051077     0.515840  Biso 1.000000     C
    C   1.0     0.205269     0.161973     0.517222  Biso 1.000000     C
    C   1.0     0.705434     0.161910     0.517141  Biso 1.000000     C
    C   1.0     0.226952     0.106431     0.423153  Biso 1.000000     C
    C   1.0     0.727132     0.106415     0.423072  Biso 1.000000     C
    C   1.0     0.264698     0.150224     0.719099  Biso 1.000000     C
    C   1.0     0.764610     0.150186     0.719110  Biso 1.000000     C
    C   1.0     0.247855     0.059971     0.648701  Biso 1.000000     C
    C   1.0     0.747779     0.059931     0.648691  Biso 1.000000     C
    C   1.0     0.252722     0.233353     0.572259  Biso 1.000000     C
    C   1.0     0.752914     0.233233     0.572236  Biso 1.000000     C
    C   1.0     0.325047     0.183825     0.721991  Biso 1.000000     C
    C   1.0     0.824933     0.183828     0.721954  Biso 1.000000     C
    N   1.0     0.377461     0.482938     0.322877  Biso 1.000000     N
    N   1.0     0.877468     0.483102     0.323010  Biso 1.000000     N
    N   1.0     0.323041     0.490962     0.053872  Biso 1.000000     N
    N   1.0     0.823028     0.490895     0.053961  Biso 1.000000     N
    N   1.0     0.210990     0.840436     0.518191  Biso 1.000000     N
    N   1.0     0.710927     0.840325     0.518214  Biso 1.000000     N
    N   1.0     0.156567     0.562900     0.508941  Biso 1.000000     N
    N   1.0     0.656495     0.562713     0.508818  Biso 1.000000     N
    N   1.0     0.044235     0.677139     0.160256  Biso 1.000000     N
    N   1.0     0.544193     0.677071     0.160175  Biso 1.000000     N
    N   1.0     0.489915     0.945971     0.437284  Biso 1.000000     N
    N   1.0     0.989902     0.945903     0.437361  Biso 1.000000     N
    N   1.0     0.127387     0.517060     0.677088  Biso 1.000000     N
    N   1.0     0.627439     0.516889     0.676982  Biso 1.000000     N
    N   1.0     0.072996     0.509005     0.946125  Biso 1.000000     N
    N   1.0     0.573072     0.508994     0.946054  Biso 1.000000     N
    N   1.0     0.461149     0.159816     0.482002  Biso 1.000000     N
    N   1.0     0.960945     0.159668     0.481812  Biso 1.000000     N
    N   1.0     0.406483     0.437178     0.491089  Biso 1.000000     N
    N   1.0     0.906551     0.437246     0.491077  Biso 1.000000     N
    N   1.0     0.294291     0.322811     0.839804  Biso 1.000000     N
    N   1.0     0.794215     0.322736     0.839922  Biso 1.000000     N
    N   1.0     0.239895     0.054168     0.562728  Biso 1.000000     N
    N   1.0     0.739924     0.054065     0.562680  Biso 1.000000     N
    O   1.0     0.163784     0.579411     0.091760  Biso 1.000000     O
    O   1.0     0.663787     0.579391     0.091886  Biso 1.000000     O
    O   1.0     0.213597     0.481339     0.969663  Biso 1.000000     O
    O   1.0     0.713597     0.481357     0.969772  Biso 1.000000     O
    O   1.0     0.497167     0.512884     0.420490  Biso 1.000000     O
    O   1.0     0.997200     0.513356     0.420676  Biso 1.000000     O
    O   1.0     0.046970     0.488378     0.518293  Biso 1.000000     O
    O   1.0     0.546958     0.488135     0.518237  Biso 1.000000     O
    O   1.0     0.330590     0.908306     0.488064  Biso 1.000000     O
    O   1.0     0.830587     0.908127     0.488069  Biso 1.000000     O
    O   1.0     0.380388     0.030305     0.511605  Biso 1.000000     O
    O   1.0     0.880322     0.030101     0.511396  Biso 1.000000     O
    O   1.0     0.413818     0.420573     0.908064  Biso 1.000000     O
    O   1.0     0.913787     0.420451     0.908357  Biso 1.000000     O
    O   1.0     0.463595     0.518522     0.030217  Biso 1.000000     O
    O   1.0     0.963579     0.518555     0.030419  Biso 1.000000     O
    O   1.0     0.247145     0.487000     0.579427  Biso 1.000000     O
    O   1.0     0.747166     0.486865     0.579324  Biso 1.000000     O
    O   1.0     0.296947     0.511765     0.481682  Biso 1.000000     O
    O   1.0     0.796961     0.511781     0.481681  Biso 1.000000     O
    O   1.0     0.080566     0.091922     0.512080  Biso 1.000000     O
    O   1.0     0.580664     0.091842     0.511789  Biso 1.000000     O
    O   1.0     0.130351     0.969934     0.488632  Biso 1.000000     O
    O   1.0     0.630367     0.969889     0.488590  Biso 1.000000     O
   Cl   1.0     0.320266     0.539668     0.864452  Biso 1.000000    Cl
   Cl   1.0     0.820408     0.539445     0.864434  Biso 1.000000    Cl
   Cl   1.0     0.153700     0.324925     0.459818  Biso 1.000000    Cl
   Cl   1.0     0.653777     0.324756     0.459639  Biso 1.000000    Cl
   Cl   1.0     0.487398     0.135397     0.674627  Biso 1.000000    Cl
   Cl   1.0     0.987068     0.135587     0.674641  Biso 1.000000    Cl
   Cl   1.0     0.070439     0.460331     0.135583  Biso 1.000000    Cl
   Cl   1.0     0.570342     0.460166     0.135377  Biso 1.000000    Cl
   Cl   1.0     0.403769     0.675098     0.540129  Biso 1.000000    Cl
   Cl   1.0     0.903608     0.675265     0.540369  Biso 1.000000    Cl
   Cl   1.0     0.237158     0.864515     0.325384  Biso 1.000000    Cl
   Cl   1.0     0.737180     0.864410     0.325405  Biso 1.000000    Cl
   Zn   1.0     0.314057     0.453532     0.921547  Biso 1.000000    Zn
   Zn   1.0     0.814030     0.453426     0.921656  Biso 1.000000    Zn
   Zn   1.0     0.147378     0.467894     0.546234  Biso 1.000000    Zn
   Zn   1.0     0.647393     0.467701     0.546119  Biso 1.000000    Zn
   Zn   1.0     0.480806     0.078343     0.531505  Biso 1.000000    Zn
   Zn   1.0     0.980711     0.078283     0.531467  Biso 1.000000    Zn
   Zn   1.0     0.064046     0.546430     0.078457  Biso 1.000000    Zn
   Zn   1.0     0.564041     0.546364     0.078356  Biso 1.000000    Zn
   Zn   1.0     0.397388     0.532143     0.453728  Biso 1.000000    Zn
   Zn   1.0     0.897403     0.532313     0.453844  Biso 1.000000    Zn
   Zn   1.0     0.230736     0.921834     0.468552  Biso 1.000000    Zn
   Zn   1.0     0.730723     0.921702     0.468577  Biso 1.000000    Zn
