#======================================================================

# CRYSTAL DATA

#----------------------------------------------------------------------

data_VESTA_phase_1


_pd_phase_name                         MOF
_cell_length_a                         21.11000
_cell_length_b                         17.85300
_cell_length_c                         17.85300
_cell_angle_alpha                      119.97700
_cell_angle_beta                       89.99500
_cell_angle_gamma                      89.96200
_symmetry_space_group_name_H-M         "P 1"
_symmetry_Int_Tables_number            1

loop_
_symmetry_equiv_pos_as_xyz
   "x, y, z"

loop_
   _atom_site_label
   _atom_site_occupancy
   _atom_site_fract_x
   _atom_site_fract_y
   _atom_site_fract_z
   _atom_site_adp_type
   _atom_site_B_iso_or_equiv
   _atom_site_type_symbol
    H   1.0     0.493891     0.477229     0.929138  Biso 1.000000     H
    H   1.0     0.993884     0.477276     0.929135  Biso 1.000000     H
    H   1.0     0.095372     0.489736     0.702493  Biso 1.000000     H
    H   1.0     0.595352     0.489696     0.702485  Biso 1.000000     H
    H   1.0     0.414031     0.553504     0.665691  Biso 1.000000     H
    H   1.0     0.914022     0.553497     0.665663  Biso 1.000000     H
    H   1.0     0.383413     0.601107     0.818275  Biso 1.000000     H
    H   1.0     0.883396     0.601115     0.818248  Biso 1.000000     H
    H   1.0     0.073380     0.533952     0.855695  Biso 1.000000     H
    H   1.0     0.573367     0.533892     0.855684  Biso 1.000000     H
    H   1.0     0.496023     0.627540     0.985792  Biso 1.000000     H
    H   1.0     0.995996     0.627589     0.985790  Biso 1.000000     H
    H   1.0     0.414043     0.626050     0.961549  Biso 1.000000     H
    H   1.0     0.914017     0.626076     0.961527  Biso 1.000000     H
    H   1.0     0.382289     0.472887     0.846749  Biso 1.000000     H
    H   1.0     0.882286     0.472895     0.846724  Biso 1.000000     H
    H   1.0     0.372615     0.323223     0.804978  Biso 1.000000     H
    H   1.0     0.872632     0.323234     0.804977  Biso 1.000000     H
    H   1.0     0.446178     0.247560     0.851372  Biso 1.000000     H
    H   1.0     0.946204     0.247614     0.851419  Biso 1.000000     H
    H   1.0     0.402069     0.325788     0.941144  Biso 1.000000     H
    H   1.0     0.902068     0.325833     0.941164  Biso 1.000000     H
    H   1.0     0.481795     0.346994     0.929093  Biso 1.000000     H
    H   1.0     0.981793     0.347070     0.929142  Biso 1.000000     H
    H   1.0     0.511338     0.368520     0.793276  Biso 1.000000     H
    H   1.0     0.000000     0.368571     0.793313  Biso 1.000000     H
    H   1.0     0.448045     0.368184     0.727601  Biso 1.000000     H
    H   1.0     0.948067     0.368195     0.727607  Biso 1.000000     H
    H   1.0     0.470546     0.270688     0.723762  Biso 1.000000     H
    H   1.0     0.970583     0.270719     0.723799  Biso 1.000000     H
    H   1.0     0.327275     0.451829     0.522643  Biso 1.000000     H
    H   1.0     0.827260     0.451885     0.522694  Biso 1.000000     H
    H   1.0     0.428699     0.212689     0.510192  Biso 1.000000     H
    H   1.0     0.928676     0.212730     0.510249  Biso 1.000000     H
    H   1.0     0.247411     0.112352     0.446522  Biso 1.000000     H
    H   1.0     0.747399     0.112369     0.446508  Biso 1.000000     H
    H   1.0     0.216854     0.217337     0.398841  Biso 1.000000     H
    H   1.0     0.716852     0.217369     0.398842  Biso 1.000000     H
    H   1.0     0.406784     0.321687     0.465919  Biso 1.000000     H
    H   1.0     0.906770     0.321744     0.465994  Biso 1.000000     H
    H   1.0     0.329517     0.358317     0.372331  Biso 1.000000     H
    H   1.0     0.829524     0.358372     0.372387  Biso 1.000000     H
    H   1.0     0.247533     0.335626     0.373847  Biso 1.000000     H
    H   1.0     0.747539     0.335676     0.373876  Biso 1.000000     H
    H   1.0     0.215778     0.373770     0.527094  Biso 1.000000     H
    H   1.0     0.715758     0.373808     0.527106  Biso 1.000000     H
    H   1.0     0.205933     0.481678     0.676756  Biso 1.000000     H
    H   1.0     0.705896     0.481699     0.676772  Biso 1.000000     H
    H   1.0     0.279407     0.603760     0.752213  Biso 1.000000     H
    H   1.0     0.779364     0.603773     0.752269  Biso 1.000000     H
    H   1.0     0.235237     0.615187     0.673968  Biso 1.000000     H
    H   1.0     0.735219     0.615218     0.674016  Biso 1.000000     H
    H   1.0     0.314990     0.581968     0.652671  Biso 1.000000     H
    H   1.0     0.814973     0.581998     0.652747  Biso 1.000000     H
    H   1.0     0.344716     0.424707     0.631389  Biso 1.000000     H
    H   1.0     0.844680     0.424724     0.631441  Biso 1.000000     H
    H   1.0     0.281478     0.359457     0.631963  Biso 1.000000     H
    H   1.0     0.781433     0.359469     0.631980  Biso 1.000000     H
    H   1.0     0.303912     0.453156     0.729321  Biso 1.000000     H
    H   1.0     0.803855     0.453156     0.729355  Biso 1.000000     H
    H   1.0     0.160511     0.070950     0.548146  Biso 1.000000     H
    H   1.0     0.660506     0.070948     0.548190  Biso 1.000000     H
    H   1.0     0.262149     0.297319     0.787112  Biso 1.000000     H
    H   1.0     0.762148     0.297305     0.787149  Biso 1.000000     H
    H   1.0     0.080893     0.334409     0.887910  Biso 1.000000     H
    H   1.0     0.580881     0.334430     0.887921  Biso 1.000000     H
    H   1.0     0.050214     0.181925     0.782956  Biso 1.000000     H
    H   1.0     0.550198     0.181944     0.782979  Biso 1.000000     H
    H   1.0     0.240098     0.144207     0.678094  Biso 1.000000     H
    H   1.0     0.740092     0.144190     0.678145  Biso 1.000000     H
    H   1.0     0.162764     0.014233     0.641811  Biso 1.000000     H
    H   1.0     0.662742     0.014229     0.641853  Biso 1.000000     H
    H   1.0     0.080792     0.038650     0.664678  Biso 1.000000     H
    H   1.0     0.580771     0.038661     0.664717  Biso 1.000000     H
    H   1.0     0.048861     0.153367     0.626172  Biso 1.000000     H
    H   1.0     0.548864     0.153390     0.626205  Biso 1.000000     H
    H   1.0     0.039111     0.195119     0.518201  Biso 1.000000     H
    H   1.0     0.539131     0.195121     0.518215  Biso 1.000000     H
    H   1.0     0.112763     0.148684     0.396239  Biso 1.000000     H
    H   1.0     0.612792     0.148640     0.396248  Biso 1.000000     H
    H   1.0     0.068691     0.058943     0.384719  Biso 1.000000     H
    H   1.0     0.568693     0.058925     0.384743  Biso 1.000000     H
    H   1.0     0.148397     0.070943     0.418048  Biso 1.000000     H
    H   1.0     0.648396     0.070895     0.418074  Biso 1.000000     H
    H   1.0     0.177827     0.206802     0.575276  Biso 1.000000     H
    H   1.0     0.677842     0.206764     0.575292  Biso 1.000000     H
    H   1.0     0.114487     0.272545     0.640496  Biso 1.000000     H
    H   1.0     0.614512     0.272538     0.640504  Biso 1.000000     H
    H   1.0     0.136994     0.276274     0.546800  Biso 1.000000     H
    H   1.0     0.637033     0.276238     0.546798  Biso 1.000000     H
    H   1.0     0.243851     0.522640     0.070782  Biso 1.000000     H
    H   1.0     0.743856     0.522648     0.070789  Biso 1.000000     H
    H   1.0     0.345442     0.510189     0.297311  Biso 1.000000     H
    H   1.0     0.845448     0.510224     0.297352  Biso 1.000000     H
    H   1.0     0.164198     0.446598     0.334392  Biso 1.000000     H
    H   1.0     0.664194     0.446656     0.334420  Biso 1.000000     H
    H   1.0     0.133558     0.398916     0.181820  Biso 1.000000     H
    H   1.0     0.633571     0.398942     0.181836  Biso 1.000000     H
    H   1.0     0.323429     0.465930     0.144117  Biso 1.000000     H
    H   1.0     0.823454     0.465934     0.144146  Biso 1.000000     H
    H   1.0     0.246118     0.372321     0.014133  Biso 1.000000     H
    H   1.0     0.746156     0.372339     0.014156  Biso 1.000000     H
    H   1.0     0.164149     0.373878     0.038489  Biso 1.000000     H
    H   1.0     0.664186     0.373857     0.038491  Biso 1.000000     H
    H   1.0     0.132252     0.527108     0.153255  Biso 1.000000     H
    H   1.0     0.632276     0.527094     0.153285  Biso 1.000000     H
    H   1.0     0.122458     0.676774     0.194861  Biso 1.000000     H
    H   1.0     0.622454     0.676754     0.194890  Biso 1.000000     H
    H   1.0     0.196065     0.752204     0.148286  Biso 1.000000     H
    H   1.0     0.696031     0.752199     0.148293  Biso 1.000000     H
    H   1.0     0.151957     0.674007     0.058612  Biso 1.000000     H
    H   1.0     0.651916     0.673994     0.058631  Biso 1.000000     H
    H   1.0     0.231678     0.652649     0.070606  Biso 1.000000     H
    H   1.0     0.731646     0.652651     0.070602  Biso 1.000000     H
    H   1.0     0.261182     0.631304     0.206577  Biso 1.000000     H
    H   1.0     0.761192     0.631310     0.206564  Biso 1.000000     H
    H   1.0     0.197858     0.631861     0.272328  Biso 1.000000     H
    H   1.0     0.697886     0.631859     0.272336  Biso 1.000000     H
    H   1.0     0.220362     0.729248     0.276022  Biso 1.000000     H
    H   1.0     0.720370     0.729248     0.276019  Biso 1.000000     H
    H   1.0     0.077237     0.548144     0.477181  Biso 1.000000     H
    H   1.0     0.577211     0.548143     0.477188  Biso 1.000000     H
    H   1.0     0.178753     0.787141     0.489785  Biso 1.000000     H
    H   1.0     0.678724     0.787130     0.489806  Biso 1.000000     H
    H   1.0    -0.002522     0.887963     0.553624  Biso 1.000000     H
    H   1.0     0.497459     0.887987     0.553668  Biso 1.000000     H
    H   1.0     0.466760     0.782914     0.601122  Biso 1.000000     H
    H   1.0     0.966770     0.782903     0.601101  Biso 1.000000     H
    H   1.0     0.156693     0.678032     0.533833  Biso 1.000000     H
    H   1.0     0.656649     0.678009     0.533833  Biso 1.000000     H
    H   1.0     0.079335     0.641656     0.627543  Biso 1.000000     H
    H   1.0     0.579279     0.641655     0.627559  Biso 1.000000     H
    H   1.0    -0.002641     0.664458     0.625941  Biso 1.000000     H
    H   1.0     0.497303     0.664439     0.625920  Biso 1.000000     H
    H   1.0     0.465606     0.626247     0.472820  Biso 1.000000     H
    H   1.0     0.965626     0.626289     0.472837  Biso 1.000000     H
    H   1.0     0.455902     0.518416     0.323129  Biso 1.000000     H
    H   1.0     0.955895     0.518468     0.323151  Biso 1.000000     H
    H   1.0     0.029523     0.396420     0.247567  Biso 1.000000     H
    H   1.0     0.529539     0.396406     0.247563  Biso 1.000000     H
    H   1.0     0.485432     0.384853     0.325782  Biso 1.000000     H
    H   1.0     0.985389     0.384887     0.325795  Biso 1.000000     H
    H   1.0     0.065127     0.418120     0.347048  Biso 1.000000     H
    H   1.0     0.565139     0.418125     0.347053  Biso 1.000000     H
    H   1.0     0.094640     0.575395     0.368466  Biso 1.000000     H
    H   1.0     0.594609     0.575412     0.368472  Biso 1.000000     H
    H   1.0     0.031331     0.640710     0.368011  Biso 1.000000     H
    H   1.0     0.531282     0.640697     0.368008  Biso 1.000000     H
    H   1.0     0.053845     0.547047     0.270586  Biso 1.000000     H
    H   1.0     0.553817     0.547047     0.270585  Biso 1.000000     H
    H   1.0     0.410597     0.929118     0.451892  Biso 1.000000     H
    H   1.0     0.910573     0.929127     0.451888  Biso 1.000000     H
    H   1.0     0.012019     0.702393     0.212613  Biso 1.000000     H
    H   1.0     0.512025     0.702359     0.212602  Biso 1.000000     H
    H   1.0     0.330664     0.665869     0.112403  Biso 1.000000     H
    H   1.0     0.830648     0.665898     0.112373  Biso 1.000000     H
    H   1.0     0.300138     0.818491     0.217390  Biso 1.000000     H
    H   1.0     0.800109     0.818513     0.217372  Biso 1.000000     H
    H   1.0     0.490147     0.855584     0.321591  Biso 1.000000     H
    H   1.0     0.990104     0.855610     0.321614  Biso 1.000000     H
    H   1.0     0.412868     0.985813     0.358263  Biso 1.000000     H
    H   1.0     0.912813     0.985835     0.358265  Biso 1.000000     H
    H   1.0     0.330877     0.961710     0.335539  Biso 1.000000     H
    H   1.0     0.830824     0.961714     0.335557  Biso 1.000000     H
    H   1.0     0.299036     0.846768     0.373895  Biso 1.000000     H
    H   1.0     0.798999     0.846787     0.373927  Biso 1.000000     H
    H   1.0     0.289302     0.804926     0.481757  Biso 1.000000     H
    H   1.0     0.789289     0.804953     0.481802  Biso 1.000000     H
    H   1.0     0.362765     0.851347     0.603821  Biso 1.000000     H
    H   1.0     0.862782     0.851361     0.603832  Biso 1.000000     H
    H   1.0     0.318617     0.941089     0.615307  Biso 1.000000     H
    H   1.0     0.818636     0.941110     0.615334  Biso 1.000000     H
    H   1.0     0.398370     0.929122     0.582109  Biso 1.000000     H
    H   1.0     0.898381     0.929125     0.582099  Biso 1.000000     H
    H   1.0     0.428082     0.793326     0.424865  Biso 1.000000     H
    H   1.0     0.928055     0.793317     0.424848  Biso 1.000000     H
    H   1.0     0.364860     0.727587     0.359541  Biso 1.000000     H
    H   1.0     0.864819     0.727593     0.359551  Biso 1.000000     H
    H   1.0     0.387279     0.723806     0.453233  Biso 1.000000     H
    H   1.0     0.887257     0.723808     0.453234  Biso 1.000000     H
    C   1.0     0.048978     0.514021     0.730846  Biso 1.000000     C
    C   1.0     0.548961     0.513984     0.730845  Biso 1.000000     C
    C   1.0     0.447433     0.550475     0.710488  Biso 1.000000     C
    C   1.0     0.947423     0.550482     0.710469  Biso 1.000000     C
    C   1.0     0.431023     0.576566     0.795482  Biso 1.000000     C
    C   1.0     0.931009     0.576582     0.795463  Biso 1.000000     C
    C   1.0     0.475423     0.569689     0.849922  Biso 1.000000     C
    C   1.0     0.975410     0.569725     0.849914  Biso 1.000000     C
    C   1.0     0.035906     0.539038     0.816363  Biso 1.000000     C
    C   1.0     0.535892     0.538992     0.816360  Biso 1.000000     C
    C   1.0     0.458480     0.589188     0.939951  Biso 1.000000     C
    C   1.0     0.958459     0.589226     0.939941  Biso 1.000000     C
    C   1.0     0.339338     0.464776     0.949060  Biso 1.000000     C
    C   1.0     0.839331     0.464799     0.949043  Biso 1.000000     C
    C   1.0     0.398046     0.452425     0.892679  Biso 1.000000     C
    C   1.0     0.898042     0.452450     0.892668  Biso 1.000000     C
    C   1.0     0.416613     0.356175     0.837783  Biso 1.000000     C
    C   1.0     0.916623     0.356203     0.837794  Biso 1.000000     C
    C   1.0     0.438010     0.317288     0.893019  Biso 1.000000     C
    C   1.0     0.938018     0.317340     0.893052  Biso 1.000000     C
    C   1.0     0.464558     0.340574     0.767107  Biso 1.000000     C
    C   1.0     0.964579     0.340604     0.767130  Biso 1.000000     C
    C   1.0     0.382328     0.216832     0.485926  Biso 1.000000     C
    C   1.0     0.882311     0.216871     0.485971  Biso 1.000000     C
    C   1.0     0.280818     0.160127     0.449510  Biso 1.000000     C
    C   1.0     0.780807     0.160151     0.449513  Biso 1.000000     C
    C   1.0     0.264450     0.219003     0.423341  Biso 1.000000     C
    C   1.0     0.764443     0.219040     0.423360  Biso 1.000000     C
    C   1.0     0.308856     0.280262     0.430190  Biso 1.000000     C
    C   1.0     0.808848     0.280309     0.430229  Biso 1.000000     C
    C   1.0     0.369306     0.277310     0.460841  Biso 1.000000     C
    C   1.0     0.869291     0.277363     0.460903  Biso 1.000000     C
    C   1.0     0.291945     0.350810     0.410681  Biso 1.000000     C
    C   1.0     0.791944     0.350863     0.410726  Biso 1.000000     C
    C   1.0     0.172672     0.484113     0.535133  Biso 1.000000     C
    C   1.0     0.672657     0.484159     0.535160  Biso 1.000000     C
    C   1.0     0.231433     0.440157     0.547502  Biso 1.000000     C
    C   1.0     0.731415     0.440198     0.547530  Biso 1.000000     C
    C   1.0     0.249933     0.481530     0.643751  Biso 1.000000     C
    C   1.0     0.749903     0.481554     0.643782  Biso 1.000000     C
    C   1.0     0.271234     0.575617     0.682487  Biso 1.000000     C
    C   1.0     0.771207     0.575642     0.682541  Biso 1.000000     C
    C   1.0     0.297939     0.426538     0.659423  Biso 1.000000     C
    C   1.0     0.797896     0.426551     0.659457  Biso 1.000000     C
    C   1.0     0.215752     0.269052     0.783059  Biso 1.000000     C
    C   1.0     0.715748     0.269043     0.783096  Biso 1.000000     C
    C   1.0     0.114254     0.289565     0.840023  Biso 1.000000     C
    C   1.0     0.614244     0.289576     0.840044  Biso 1.000000     C
    C   1.0     0.097822     0.204623     0.781163  Biso 1.000000     C
    C   1.0     0.597808     0.204635     0.781188  Biso 1.000000     C
    C   1.0     0.142179     0.150149     0.719765  Biso 1.000000     C
    C   1.0     0.642168     0.150148     0.719805  Biso 1.000000     C
    C   1.0     0.202656     0.183579     0.722580  Biso 1.000000     C
    C   1.0     0.702649     0.183570     0.722621  Biso 1.000000     C
    C   1.0     0.125212     0.060149     0.649330  Biso 1.000000     C
    C   1.0     0.625195     0.060151     0.649370  Biso 1.000000     C
    C   1.0     0.005975     0.051055     0.515817  Biso 1.000000     C
    C   1.0     0.505969     0.051072     0.515858  Biso 1.000000     C
    C   1.0     0.064642     0.107430     0.559810  Biso 1.000000     C
    C   1.0     0.564640     0.107439     0.559845  Biso 1.000000     C
    C   1.0     0.083137     0.162311     0.518407  Biso 1.000000     C
    C   1.0     0.583149     0.162300     0.518426  Biso 1.000000     C
    C   1.0     0.104595     0.107046     0.424344  Biso 1.000000     C
    C   1.0     0.604606     0.107016     0.424364  Biso 1.000000     C
    C   1.0     0.131031     0.232979     0.573423  Biso 1.000000     C
    C   1.0     0.631055     0.232956     0.573432  Biso 1.000000     C
    C   1.0     0.299060     0.485939     0.269016  Biso 1.000000     C
    C   1.0     0.799069     0.485969     0.269050  Biso 1.000000     C
    C   1.0     0.197571     0.449563     0.289527  Biso 1.000000     C
    C   1.0     0.697573     0.449608     0.289555  Biso 1.000000     C
    C   1.0     0.181152     0.423428     0.204543  Biso 1.000000     C
    C   1.0     0.681164     0.423455     0.204564  Biso 1.000000     C
    C   1.0     0.225521     0.430239     0.150032  Biso 1.000000     C
    C   1.0     0.725542     0.430249     0.150051  Biso 1.000000     C
    C   1.0     0.285978     0.460890     0.183505  Biso 1.000000     C
    C   1.0     0.785996     0.460903     0.183532  Biso 1.000000     C
    C   1.0     0.208556     0.410711     0.060013  Biso 1.000000     C
    C   1.0     0.708584     0.410711     0.060027  Biso 1.000000     C
    C   1.0     0.089299     0.535170     0.050910  Biso 1.000000     C
    C   1.0     0.589293     0.535135     0.050947  Biso 1.000000     C
    C   1.0     0.147988     0.547500     0.107268  Biso 1.000000     C
    C   1.0     0.647994     0.547485     0.107291  Biso 1.000000     C
    C   1.0     0.166480     0.643745     0.162064  Biso 1.000000     C
    C   1.0     0.666475     0.643735     0.162079  Biso 1.000000     C
    C   1.0     0.187892     0.682487     0.106719  Biso 1.000000     C
    C   1.0     0.687862     0.682480     0.106728  Biso 1.000000     C
    C   1.0     0.214393     0.659362     0.232746  Biso 1.000000     C
    C   1.0     0.714404     0.659361     0.232747  Biso 1.000000     C
    C   1.0     0.132351     0.783088     0.514031  Biso 1.000000     C
    C   1.0     0.632322     0.783084     0.514054  Biso 1.000000     C
    C   1.0     0.030848     0.840059     0.550551  Biso 1.000000     C
    C   1.0     0.530824     0.840074     0.550587  Biso 1.000000     C
    C   1.0     0.014411     0.781140     0.576608  Biso 1.000000     C
    C   1.0     0.514377     0.781142     0.576623  Biso 1.000000     C
    C   1.0     0.058778     0.719725     0.569654  Biso 1.000000     C
    C   1.0     0.558738     0.719718     0.569663  Biso 1.000000     C
    C   1.0     0.119254     0.722553     0.538997  Biso 1.000000     C
    C   1.0     0.619214     0.722536     0.538999  Biso 1.000000     C
    C   1.0     0.041817     0.649203     0.589148  Biso 1.000000     C
    C   1.0     0.541770     0.649191     0.589145  Biso 1.000000     C
    C   1.0     0.422656     0.515877     0.464729  Biso 1.000000     C
    C   1.0     0.922649     0.515944     0.464761  Biso 1.000000     C
    C   1.0     0.481358     0.559852     0.452353  Biso 1.000000     C
    C   1.0     0.981363     0.559887     0.452367  Biso 1.000000     C
    C   1.0     0.499909     0.518559     0.356109  Biso 1.000000     C
    C   1.0     0.999902     0.518587     0.356119  Biso 1.000000     C
    C   1.0     0.021343     0.424493     0.317292  Biso 1.000000     C
    C   1.0     0.521352     0.424476     0.317287  Biso 1.000000     C
    C   1.0     0.047859     0.573616     0.340481  Biso 1.000000     C
    C   1.0     0.547826     0.573610     0.340479  Biso 1.000000     C
    C   1.0     0.465646     0.730798     0.216787  Biso 1.000000     C
    C   1.0     0.965618     0.730831     0.216788  Biso 1.000000     C
    C   1.0     0.364094     0.710600     0.160154  Biso 1.000000     C
    C   1.0     0.864073     0.710630     0.160132  Biso 1.000000     C
    C   1.0     0.347743     0.795622     0.219028  Biso 1.000000     C
    C   1.0     0.847711     0.795643     0.219022  Biso 1.000000     C
    C   1.0     0.392172     0.849970     0.280262  Biso 1.000000     C
    C   1.0     0.892135     0.849992     0.280263  Biso 1.000000     C
    C   1.0     0.452641     0.816338     0.277256  Biso 1.000000     C
    C   1.0     0.952602     0.816360     0.277275  Biso 1.000000     C
    C   1.0     0.375278     0.940018     0.350769  Biso 1.000000     C
    C   1.0     0.875233     0.940032     0.350780  Biso 1.000000     C
    C   1.0     0.256021     0.949067     0.484271  Biso 1.000000     C
    C   1.0     0.756006     0.949094     0.484325  Biso 1.000000     C
    C   1.0     0.314756     0.892687     0.440258  Biso 1.000000     C
    C   1.0     0.814731     0.892704     0.440285  Biso 1.000000     C
    C   1.0     0.333292     0.837768     0.481625  Biso 1.000000     C
    C   1.0     0.833279     0.837785     0.481647  Biso 1.000000     C
    C   1.0     0.354603     0.893002     0.575723  Biso 1.000000     C
    C   1.0     0.854613     0.893015     0.575735  Biso 1.000000     C
    C   1.0     0.381306     0.767130     0.426639  Biso 1.000000     C
    C   1.0     0.881278     0.767133     0.426641  Biso 1.000000     C
    N   1.0     0.005229     0.518435     0.677711  Biso 1.000000     N
    N   1.0     0.505213     0.518420     0.677721  Biso 1.000000     N
    N   1.0     0.450892     0.509169     0.945753  Biso 1.000000     N
    N   1.0     0.950881     0.509207     0.945744  Biso 1.000000     N
    N   1.0     0.338574     0.159339     0.481539  Biso 1.000000     N
    N   1.0     0.838557     0.159366     0.481558  Biso 1.000000     N
    N   1.0     0.284293     0.436556     0.490736  Biso 1.000000     N
    N   1.0     0.784282     0.436608     0.490778  Biso 1.000000     N
    N   1.0     0.172032     0.322213     0.840675  Biso 1.000000     N
    N   1.0     0.672025     0.322216     0.840698  Biso 1.000000     N
    N   1.0     0.117549     0.054355     0.563525  Biso 1.000000     N
    N   1.0     0.617540     0.054359     0.563565  Biso 1.000000     N
    N   1.0     0.255331     0.481584     0.322209  Biso 1.000000     N
    N   1.0     0.755332     0.481629     0.322243  Biso 1.000000     N
    N   1.0     0.200883     0.490716     0.054185  Biso 1.000000     N
    N   1.0     0.700892     0.490714     0.054199  Biso 1.000000     N
    N   1.0     0.088634     0.840746     0.518537  Biso 1.000000     N
    N   1.0     0.588610     0.840752     0.518568  Biso 1.000000     N
    N   1.0     0.034241     0.563461     0.509110  Biso 1.000000     N
    N   1.0     0.534212     0.563445     0.509107  Biso 1.000000     N
    N   1.0     0.421866     0.677754     0.159331  Biso 1.000000     N
    N   1.0     0.921843     0.677787     0.159322  Biso 1.000000     N
    N   1.0     0.367617     0.945754     0.436556  Biso 1.000000     N
    N   1.0     0.867590     0.945767     0.436569  Biso 1.000000     N
    O   1.0     0.341368     0.518891     0.030025  Biso 1.000000     O
    O   1.0     0.841358     0.518910     0.030010  Biso 1.000000     O
    O   1.0     0.291808     0.419373     0.908741  Biso 1.000000     O
    O   1.0     0.791802     0.419397     0.908718  Biso 1.000000     O
    O   1.0     0.174737     0.511166     0.481155  Biso 1.000000     O
    O   1.0     0.674724     0.511204     0.481176  Biso 1.000000     O
    O   1.0     0.125091     0.488962     0.580425  Biso 1.000000     O
    O   1.0     0.625075     0.489015     0.580454  Biso 1.000000     O
    O   1.0     0.008095     0.970121     0.489018  Biso 1.000000     O
    O   1.0     0.508086     0.970136     0.489045  Biso 1.000000     O
    O   1.0     0.458396     0.091402     0.510754  Biso 1.000000     O
    O   1.0     0.958379     0.091374     0.510696  Biso 1.000000     O
    O   1.0     0.091399     0.481097     0.969937  Biso 1.000000     O
    O   1.0     0.591391     0.481082     0.969970  Biso 1.000000     O
    O   1.0     0.041724     0.580584     0.091254  Biso 1.000000     O
    O   1.0     0.541711     0.580517     0.091309  Biso 1.000000     O
    O   1.0     0.424723     0.488976     0.518829  Biso 1.000000     O
    O   1.0     0.924715     0.489016     0.518838  Biso 1.000000     O
    O   1.0     0.375104     0.510902     0.419360  Biso 1.000000     O
    O   1.0     0.875092     0.511014     0.419419  Biso 1.000000     O
    O   1.0     0.258074     0.030022     0.511166  Biso 1.000000     O
    O   1.0     0.758059     0.030046     0.511201  Biso 1.000000     O
    O   1.0     0.208471     0.908733     0.489318  Biso 1.000000     O
    O   1.0     0.708460     0.908773     0.489408  Biso 1.000000     O
   Cl   1.0     0.448732     0.461619     0.135198  Biso 1.000000    Cl
   Cl   1.0     0.948754     0.461688     0.135208  Biso 1.000000    Cl
   Cl   1.0     0.281965     0.673583     0.538208  Biso 1.000000    Cl
   Cl   1.0     0.781927     0.673643     0.538278  Biso 1.000000    Cl
   Cl   1.0     0.115405     0.864930     0.326609  Biso 1.000000    Cl
   Cl   1.0     0.615417     0.864918     0.326653  Biso 1.000000    Cl
   Cl   1.0     0.198696     0.538148     0.864592  Biso 1.000000    Cl
   Cl   1.0     0.698660     0.538166     0.864621  Biso 1.000000    Cl
   Cl   1.0     0.031996     0.326473     0.461570  Biso 1.000000    Cl
   Cl   1.0     0.532008     0.326468     0.461597  Biso 1.000000    Cl
   Cl   1.0     0.365415     0.135119     0.673500  Biso 1.000000    Cl
   Cl   1.0     0.865429     0.135148     0.673503  Biso 1.000000    Cl
   Zn   1.0     0.441781     0.547253     0.077890  Biso 1.000000    Zn
   Zn   1.0     0.941769     0.547300     0.077876  Biso 1.000000    Zn
   Zn   1.0     0.275159     0.530682     0.452707  Biso 1.000000    Zn
   Zn   1.0     0.775148     0.530745     0.452755  Biso 1.000000    Zn
   Zn   1.0     0.108499     0.922250     0.469532  Biso 1.000000    Zn
   Zn   1.0     0.608487     0.922258     0.469576  Biso 1.000000    Zn
   Zn   1.0     0.191835     0.452652     0.922056  Biso 1.000000    Zn
   Zn   1.0     0.691825     0.452657     0.922074  Biso 1.000000    Zn
   Zn   1.0     0.025147     0.469377     0.547183  Biso 1.000000    Zn
   Zn   1.0     0.525132     0.469371     0.547196  Biso 1.000000    Zn
   Zn   1.0     0.358468     0.077855     0.530599  Biso 1.000000    Zn
   Zn   1.0     0.858453     0.077871     0.530604  Biso 1.000000    Zn
