#======================================================================

# CRYSTAL DATA

#----------------------------------------------------------------------

data_VESTA_phase_1


_pd_phase_name                         MOF
_cell_length_a                         20.97500
_cell_length_b                         18.05600
_cell_length_c                         18.05800
_cell_angle_alpha                      120.05800
_cell_angle_beta                       90.00800
_cell_angle_gamma                      90.00200
_symmetry_space_group_name_H-M         "P 1"
_symmetry_Int_Tables_number            1

loop_
_symmetry_equiv_pos_as_xyz
   "x, y, z"

loop_
   _atom_site_label
   _atom_site_occupancy
   _atom_site_fract_x
   _atom_site_fract_y
   _atom_site_fract_z
   _atom_site_adp_type
   _atom_site_B_iso_or_equiv
   _atom_site_type_symbol
    H   1.0     0.409916     0.071140     0.552060  Biso 1.000000     H
    H   1.0     0.909918     0.071139     0.552060  Biso 1.000000     H
    H   1.0     0.306867     0.294254     0.791122  Biso 1.000000     H
    H   1.0     0.806869     0.294254     0.791123  Biso 1.000000     H
    H   1.0     0.490963     0.335043     0.886195  Biso 1.000000     H
    H   1.0     0.990966     0.335044     0.886193  Biso 1.000000     H
    H   1.0     0.022843     0.184675     0.781876  Biso 1.000000     H
    H   1.0     0.522847     0.184674     0.781878  Biso 1.000000     H
    H   1.0     0.330158     0.143130     0.682788  Biso 1.000000     H
    H   1.0     0.830160     0.143130     0.682790  Biso 1.000000     H
    H   1.0     0.491970     0.041353     0.667254  Biso 1.000000     H
    H   1.0     0.991972     0.041352     0.667256  Biso 1.000000     H
    H   1.0     0.409407     0.016341     0.646113  Biso 1.000000     H
    H   1.0     0.909408     0.016341     0.646113  Biso 1.000000     H
    H   1.0     0.024807     0.149841     0.625520  Biso 1.000000     H
    H   1.0     0.524810     0.149841     0.625518  Biso 1.000000     H
    H   1.0     0.030038     0.195719     0.522735  Biso 1.000000     H
    H   1.0     0.530041     0.195718     0.522733  Biso 1.000000     H
    H   1.0     0.421500     0.070726     0.422439  Biso 1.000000     H
    H   1.0     0.921503     0.070726     0.422440  Biso 1.000000     H
    H   1.0     0.001288     0.063278     0.388996  Biso 1.000000     H
    H   1.0     0.501291     0.063277     0.388994  Biso 1.000000     H
    H   1.0     0.454168     0.151030     0.403472  Biso 1.000000     H
    H   1.0     0.954171     0.151030     0.403473  Biso 1.000000     H
    H   1.0     0.430454     0.274493     0.553944  Biso 1.000000     H
    H   1.0     0.930457     0.274494     0.553946  Biso 1.000000     H
    H   1.0     0.454501     0.268666     0.644990  Biso 1.000000     H
    H   1.0     0.954503     0.268665     0.644992  Biso 1.000000     H
    H   1.0     0.391030     0.203335     0.580014  Biso 1.000000     H
    H   1.0     0.891033     0.203334     0.580015  Biso 1.000000     H
    H   1.0     0.076555     0.480924     0.928767  Biso 1.000000     H
    H   1.0     0.576557     0.480923     0.928767  Biso 1.000000     H
    H   1.0     0.473522     0.497182     0.705818  Biso 1.000000     H
    H   1.0     0.973525     0.497188     0.705822  Biso 1.000000     H
    H   1.0     0.157654     0.551702     0.665549  Biso 1.000000     H
    H   1.0     0.657656     0.551705     0.665550  Biso 1.000000     H
    H   1.0     0.189423     0.597662     0.815869  Biso 1.000000     H
    H   1.0     0.689423     0.597666     0.815871  Biso 1.000000     H
    H   1.0    -0.003299     0.539854     0.856865  Biso 1.000000     H
    H   1.0     0.496703     0.539848     0.856862  Biso 1.000000     H
    H   1.0     0.158433     0.626264     0.959018  Biso 1.000000     H
    H   1.0     0.658433     0.626265     0.959019  Biso 1.000000     H
    H   1.0     0.075868     0.629881     0.983834  Biso 1.000000     H
    H   1.0     0.575869     0.629879     0.983833  Biso 1.000000     H
    H   1.0     0.191470     0.475904     0.850266  Biso 1.000000     H
    H   1.0     0.691472     0.475904     0.850265  Biso 1.000000     H
    H   1.0     0.196749     0.327059     0.804060  Biso 1.000000     H
    H   1.0     0.696752     0.327060     0.804060  Biso 1.000000     H
    H   1.0     0.088161     0.351560     0.928786  Biso 1.000000     H
    H   1.0     0.588165     0.351560     0.928787  Biso 1.000000     H
    H   1.0     0.167966     0.325617     0.936276  Biso 1.000000     H
    H   1.0     0.667970     0.325618     0.936276  Biso 1.000000     H
    H   1.0     0.120906     0.252268     0.848389  Biso 1.000000     H
    H   1.0     0.620910     0.252268     0.848390  Biso 1.000000     H
    H   1.0     0.097227     0.279390     0.725130  Biso 1.000000     H
    H   1.0     0.597230     0.279389     0.725131  Biso 1.000000     H
    H   1.0     0.121226     0.376432     0.731232  Biso 1.000000     H
    H   1.0     0.621228     0.376431     0.731232  Biso 1.000000     H
    H   1.0     0.057723     0.376636     0.796375  Biso 1.000000     H
    H   1.0     0.557725     0.376634     0.796376  Biso 1.000000     H
    H   1.0     0.243248     0.447931     0.519134  Biso 1.000000     H
    H   1.0     0.743251     0.447933     0.519135  Biso 1.000000     H
    H   1.0     0.140217     0.208856     0.503279  Biso 1.000000     H
    H   1.0     0.640221     0.208857     0.503281  Biso 1.000000     H
    H   1.0     0.324286     0.113765     0.448649  Biso 1.000000     H
    H   1.0     0.824289     0.113766     0.448649  Biso 1.000000     H
    H   1.0     0.356071     0.217964     0.402586  Biso 1.000000     H
    H   1.0     0.856074     0.217966     0.402587  Biso 1.000000     H
    H   1.0     0.163412     0.317068     0.460486  Biso 1.000000     H
    H   1.0     0.663415     0.317070     0.460488  Biso 1.000000     H
    H   1.0     0.325137     0.332421     0.373940  Biso 1.000000     H
    H   1.0     0.825140     0.332423     0.373941  Biso 1.000000     H
    H   1.0     0.242574     0.353582     0.370208  Biso 1.000000     H
    H   1.0     0.742577     0.353584     0.370209  Biso 1.000000     H
    H   1.0     0.358222     0.374559     0.524257  Biso 1.000000     H
    H   1.0     0.858225     0.374562     0.524259  Biso 1.000000     H
    H   1.0     0.363483     0.477494     0.673061  Biso 1.000000     H
    H   1.0     0.863485     0.477499     0.673063  Biso 1.000000     H
    H   1.0     0.254790     0.577521     0.648475  Biso 1.000000     H
    H   1.0     0.754791     0.577524     0.648474  Biso 1.000000     H
    H   1.0     0.334562     0.611137     0.674552  Biso 1.000000     H
    H   1.0     0.834563     0.611140     0.674552  Biso 1.000000     H
    H   1.0     0.287491     0.596606     0.747799  Biso 1.000000     H
    H   1.0     0.787492     0.596611     0.747799  Biso 1.000000     H
    H   1.0     0.264067     0.446096     0.720689  Biso 1.000000     H
    H   1.0     0.764068     0.446101     0.720691  Biso 1.000000     H
    H   1.0     0.288045     0.355068     0.623599  Biso 1.000000     H
    H   1.0     0.788047     0.355073     0.623602  Biso 1.000000     H
    H   1.0     0.224478     0.419983     0.623499  Biso 1.000000     H
    H   1.0     0.724480     0.419986     0.623500  Biso 1.000000     H
    H   1.0     0.159912     0.928795     0.447850  Biso 1.000000     H
    H   1.0     0.659915     0.928796     0.447848  Biso 1.000000     H
    H   1.0     0.056970     0.705702     0.208927  Biso 1.000000     H
    H   1.0     0.556973     0.705703     0.208925  Biso 1.000000     H
    H   1.0     0.240982     0.665178     0.113678  Biso 1.000000     H
    H   1.0     0.740985     0.665179     0.113677  Biso 1.000000     H
    H   1.0     0.272813     0.815597     0.217976  Biso 1.000000     H
    H   1.0     0.772816     0.815599     0.217974  Biso 1.000000     H
    H   1.0     0.080213     0.856862     0.317236  Biso 1.000000     H
    H   1.0     0.580215     0.856864     0.317233  Biso 1.000000     H
    H   1.0     0.241983     0.958790     0.332825  Biso 1.000000     H
    H   1.0     0.741985     0.958792     0.332823  Biso 1.000000     H
    H   1.0     0.159422     0.983766     0.353933  Biso 1.000000     H
    H   1.0     0.659424     0.983768     0.353932  Biso 1.000000     H
    H   1.0     0.274806     0.850160     0.374387  Biso 1.000000     H
    H   1.0     0.774809     0.850161     0.374384  Biso 1.000000     H
    H   1.0     0.280100     0.804277     0.477203  Biso 1.000000     H
    H   1.0     0.780103     0.804275     0.477198  Biso 1.000000     H
    H   1.0     0.171405     0.928998     0.577274  Biso 1.000000     H
    H   1.0     0.671408     0.928997     0.577271  Biso 1.000000     H
    H   1.0     0.251173     0.936638     0.610881  Biso 1.000000     H
    H   1.0     0.751176     0.936636     0.610878  Biso 1.000000     H
    H   1.0     0.204138     0.848773     0.596309  Biso 1.000000     H
    H   1.0     0.704140     0.848771     0.596304  Biso 1.000000     H
    H   1.0     0.180639     0.725219     0.445757  Biso 1.000000     H
    H   1.0     0.680641     0.725219     0.445752  Biso 1.000000     H
    H   1.0     0.204699     0.731146     0.354777  Biso 1.000000     H
    H   1.0     0.704701     0.731146     0.354772  Biso 1.000000     H
    H   1.0     0.141122     0.796276     0.419622  Biso 1.000000     H
    H   1.0     0.641124     0.796277     0.419619  Biso 1.000000     H
    H   1.0     0.326570     0.519143     0.071274  Biso 1.000000     H
    H   1.0     0.826573     0.519144     0.071274  Biso 1.000000     H
    H   1.0     0.223475     0.502783     0.294170  Biso 1.000000     H
    H   1.0     0.723478     0.502783     0.294170  Biso 1.000000     H
    H   1.0     0.407593     0.448292     0.334556  Biso 1.000000     H
    H   1.0     0.907597     0.448295     0.334556  Biso 1.000000     H
    H   1.0     0.439403     0.402450     0.184292  Biso 1.000000     H
    H   1.0     0.939406     0.402452     0.184292  Biso 1.000000     H
    H   1.0     0.246697     0.460226     0.143176  Biso 1.000000     H
    H   1.0     0.746699     0.460227     0.143176  Biso 1.000000     H
    H   1.0     0.408452     0.373863     0.041145  Biso 1.000000     H
    H   1.0     0.908454     0.373863     0.041144  Biso 1.000000     H
    H   1.0     0.325893     0.370181     0.016249  Biso 1.000000     H
    H   1.0     0.825895     0.370183     0.016249  Biso 1.000000     H
    H   1.0     0.441493     0.524236     0.149820  Biso 1.000000     H
    H   1.0     0.941496     0.524237     0.149820  Biso 1.000000     H
    H   1.0     0.446736     0.673068     0.196040  Biso 1.000000     H
    H   1.0     0.946738     0.673069     0.196040  Biso 1.000000     H
    H   1.0     0.338225     0.648503     0.071141  Biso 1.000000     H
    H   1.0     0.838228     0.648504     0.071140  Biso 1.000000     H
    H   1.0     0.418035     0.674542     0.063808  Biso 1.000000     H
    H   1.0     0.918038     0.674542     0.063807  Biso 1.000000     H
    H   1.0     0.370913     0.747818     0.151627  Biso 1.000000     H
    H   1.0     0.870916     0.747819     0.151625  Biso 1.000000     H
    H   1.0     0.347167     0.720643     0.274818  Biso 1.000000     H
    H   1.0     0.847169     0.720644     0.274817  Biso 1.000000     H
    H   1.0     0.371132     0.623587     0.268699  Biso 1.000000     H
    H   1.0     0.871135     0.623589     0.268699  Biso 1.000000     H
    H   1.0     0.307689     0.623399     0.203471  Biso 1.000000     H
    H   1.0     0.807691     0.623400     0.203470  Biso 1.000000     H
    H   1.0     0.493253     0.551938     0.480845  Biso 1.000000     H
    H   1.0     0.993257     0.551940     0.480847  Biso 1.000000     H
    H   1.0     0.390166     0.791164     0.496856  Biso 1.000000     H
    H   1.0     0.890168     0.791166     0.496860  Biso 1.000000     H
    H   1.0     0.074339     0.885968     0.551062  Biso 1.000000     H
    H   1.0     0.574342     0.885968     0.551063  Biso 1.000000     H
    H   1.0     0.106141     0.781760     0.597107  Biso 1.000000     H
    H   1.0     0.606143     0.781759     0.597106  Biso 1.000000     H
    H   1.0     0.413375     0.682938     0.539626  Biso 1.000000     H
    H   1.0     0.913378     0.682941     0.539632  Biso 1.000000     H
    H   1.0     0.075121     0.667513     0.626080  Biso 1.000000     H
    H   1.0     0.575124     0.667512     0.626078  Biso 1.000000     H
    H   1.0     0.492554     0.646326     0.629738  Biso 1.000000     H
    H   1.0     0.992558     0.646327     0.629740  Biso 1.000000     H
    H   1.0     0.108222     0.625343     0.475756  Biso 1.000000     H
    H   1.0     0.608224     0.625342     0.475753  Biso 1.000000     H
    H   1.0     0.113442     0.522456     0.326961  Biso 1.000000     H
    H   1.0     0.613445     0.522453     0.326958  Biso 1.000000     H
    H   1.0     0.004828     0.422293     0.351504  Biso 1.000000     H
    H   1.0     0.504831     0.422290     0.351502  Biso 1.000000     H
    H   1.0     0.084615     0.388774     0.325464  Biso 1.000000     H
    H   1.0     0.584619     0.388772     0.325463  Biso 1.000000     H
    H   1.0     0.037508     0.403247     0.252197  Biso 1.000000     H
    H   1.0     0.537512     0.403243     0.252195  Biso 1.000000     H
    H   1.0     0.013944     0.553721     0.279329  Biso 1.000000     H
    H   1.0     0.513946     0.553716     0.279326  Biso 1.000000     H
    H   1.0     0.037948     0.644788     0.376394  Biso 1.000000     H
    H   1.0     0.537950     0.644785     0.376390  Biso 1.000000     H
    H   1.0     0.474431     0.579825     0.376547  Biso 1.000000     H
    H   1.0     0.974435     0.579828     0.376550  Biso 1.000000     H
    C   1.0     0.354164     0.267346     0.786017  Biso 1.000000     C
    C   1.0     0.854166     0.267346     0.786018  Biso 1.000000     C
    C   1.0     0.457267     0.289928     0.839712  Biso 1.000000     C
    C   1.0     0.957269     0.289929     0.839711  Biso 1.000000     C
    C   1.0     0.474361     0.206105     0.781243  Biso 1.000000     C
    C   1.0     0.974364     0.206106     0.781242  Biso 1.000000     C
    C   1.0     0.429476     0.151051     0.721801  Biso 1.000000     C
    C   1.0     0.929477     0.151051     0.721802  Biso 1.000000     C
    C   1.0     0.367926     0.182947     0.726018  Biso 1.000000     C
    C   1.0     0.867928     0.182947     0.726019  Biso 1.000000     C
    C   1.0     0.446765     0.061815     0.652371  Biso 1.000000     C
    C   1.0     0.946767     0.061815     0.652372  Biso 1.000000     C
    C   1.0     0.063744     0.048629     0.512564  Biso 1.000000     C
    C   1.0     0.563748     0.048629     0.512562  Biso 1.000000     C
    C   1.0     0.006406     0.106010     0.560726  Biso 1.000000     C
    C   1.0     0.506409     0.106010     0.560725  Biso 1.000000     C
    C   1.0     0.486285     0.162070     0.522461  Biso 1.000000     C
    C   1.0     0.986288     0.162070     0.522462  Biso 1.000000     C
    C   1.0     0.464375     0.108737     0.429398  Biso 1.000000     C
    C   1.0     0.964378     0.108738     0.429400  Biso 1.000000     C
    C   1.0     0.437649     0.230513     0.578618  Biso 1.000000     C
    C   1.0     0.937652     0.230513     0.578619  Biso 1.000000     C
    C   1.0     0.020802     0.518999     0.732822  Biso 1.000000     C
    C   1.0     0.520805     0.518995     0.732820  Biso 1.000000     C
    C   1.0     0.123919     0.550242     0.710522  Biso 1.000000     C
    C   1.0     0.623920     0.550243     0.710522  Biso 1.000000     C
    C   1.0     0.140954     0.575537     0.794319  Biso 1.000000     C
    C   1.0     0.640956     0.575539     0.794319  Biso 1.000000     C
    C   1.0     0.096042     0.571018     0.849204  Biso 1.000000     C
    C   1.0     0.596044     0.571018     0.849204  Biso 1.000000     C
    C   1.0     0.034507     0.543328     0.817182  Biso 1.000000     C
    C   1.0     0.534509     0.543324     0.817180  Biso 1.000000     C
    C   1.0     0.113285     0.590752     0.938389  Biso 1.000000     C
    C   1.0     0.613286     0.590752     0.938389  Biso 1.000000     C
    C   1.0     0.230389     0.463988     0.951305  Biso 1.000000     C
    C   1.0     0.730392     0.463989     0.951304  Biso 1.000000     C
    C   1.0     0.173064     0.454824     0.893933  Biso 1.000000     C
    C   1.0     0.673066     0.454825     0.893933  Biso 1.000000     C
    C   1.0     0.152967     0.360405     0.837681  Biso 1.000000     C
    C   1.0     0.652970     0.360405     0.837681  Biso 1.000000     C
    C   1.0     0.131066     0.320554     0.890817  Biso 1.000000     C
    C   1.0     0.631070     0.320554     0.890818  Biso 1.000000     C
    C   1.0     0.104368     0.348113     0.769228  Biso 1.000000     C
    C   1.0     0.604370     0.348112     0.769228  Biso 1.000000     C
    C   1.0     0.187491     0.213942     0.481417  Biso 1.000000     C
    C   1.0     0.687494     0.213944     0.481419  Biso 1.000000     C
    C   1.0     0.290570     0.160230     0.450110  Biso 1.000000     C
    C   1.0     0.790574     0.160232     0.450111  Biso 1.000000     C
    C   1.0     0.307614     0.218639     0.424754  Biso 1.000000     C
    C   1.0     0.807617     0.218641     0.424755  Biso 1.000000     C
    C   1.0     0.262724     0.278075     0.429258  Biso 1.000000     C
    C   1.0     0.762727     0.278077     0.429259  Biso 1.000000     C
    C   1.0     0.201201     0.273878     0.457016  Biso 1.000000     C
    C   1.0     0.701205     0.273880     0.457018  Biso 1.000000     C
    C   1.0     0.279979     0.347411     0.409409  Biso 1.000000     C
    C   1.0     0.779982     0.347413     0.409411  Biso 1.000000     C
    C   1.0     0.397051     0.487543     0.536097  Biso 1.000000     C
    C   1.0     0.897054     0.487544     0.536098  Biso 1.000000     C
    C   1.0     0.339766     0.439319     0.545293  Biso 1.000000     C
    C   1.0     0.839768     0.439322     0.545295  Biso 1.000000     C
    C   1.0     0.319683     0.477641     0.639698  Biso 1.000000     C
    C   1.0     0.819685     0.477645     0.639700  Biso 1.000000     C
    C   1.0     0.297692     0.570670     0.679538  Biso 1.000000     C
    C   1.0     0.797694     0.570674     0.679538  Biso 1.000000     C
    C   1.0     0.271151     0.421428     0.651980  Biso 1.000000     C
    C   1.0     0.771153     0.421432     0.651982  Biso 1.000000     C
    C   1.0     0.104237     0.732680     0.213993  Biso 1.000000     C
    C   1.0     0.604240     0.732681     0.213991  Biso 1.000000     C
    C   1.0     0.207290     0.710240     0.160193  Biso 1.000000     C
    C   1.0     0.707293     0.710241     0.160192  Biso 1.000000     C
    C   1.0     0.224359     0.794087     0.218651  Biso 1.000000     C
    C   1.0     0.724362     0.794088     0.218649  Biso 1.000000     C
    C   1.0     0.179493     0.849064     0.278156  Biso 1.000000     C
    C   1.0     0.679495     0.849066     0.278154  Biso 1.000000     C
    C   1.0     0.117972     0.817098     0.273975  Biso 1.000000     C
    C   1.0     0.617974     0.817099     0.273973  Biso 1.000000     C
    C   1.0     0.196776     0.938280     0.347644  Biso 1.000000     C
    C   1.0     0.696778     0.938282     0.347642  Biso 1.000000     C
    C   1.0     0.313758     0.951328     0.487395  Biso 1.000000     C
    C   1.0     0.813761     0.951327     0.487393  Biso 1.000000     C
    C   1.0     0.256416     0.893944     0.439188  Biso 1.000000     C
    C   1.0     0.756419     0.893944     0.439185  Biso 1.000000     C
    C   1.0     0.236311     0.837817     0.477381  Biso 1.000000     C
    C   1.0     0.736314     0.837816     0.477377  Biso 1.000000     C
    C   1.0     0.214317     0.891087     0.570401  Biso 1.000000     C
    C   1.0     0.714320     0.891085     0.570397  Biso 1.000000     C
    C   1.0     0.187778     0.769236     0.421114  Biso 1.000000     C
    C   1.0     0.687779     0.769236     0.421110  Biso 1.000000     C
    C   1.0     0.270765     0.481006     0.267208  Biso 1.000000     C
    C   1.0     0.770768     0.481007     0.267208  Biso 1.000000     C
    C   1.0     0.373872     0.449776     0.289569  Biso 1.000000     C
    C   1.0     0.873875     0.449778     0.289569  Biso 1.000000     C
    C   1.0     0.390931     0.424545     0.205803  Biso 1.000000     C
    C   1.0     0.890934     0.424547     0.205803  Biso 1.000000     C
    C   1.0     0.346035     0.429080     0.150895  Biso 1.000000     C
    C   1.0     0.846037     0.429081     0.150895  Biso 1.000000     C
    C   1.0     0.284494     0.456740     0.182874  Biso 1.000000     C
    C   1.0     0.784496     0.456741     0.182874  Biso 1.000000     C
    C   1.0     0.363298     0.409347     0.061719  Biso 1.000000     C
    C   1.0     0.863300     0.409348     0.061719  Biso 1.000000     C
    C   1.0     0.480397     0.536112     0.048761  Biso 1.000000     C
    C   1.0     0.980400     0.536112     0.048761  Biso 1.000000     C
    C   1.0     0.423077     0.545279     0.106123  Biso 1.000000     C
    C   1.0     0.923080     0.545280     0.106122  Biso 1.000000     C
    C   1.0     0.402975     0.639692     0.162341  Biso 1.000000     C
    C   1.0     0.902978     0.639693     0.162340  Biso 1.000000     C
    C   1.0     0.381102     0.679545     0.109191  Biso 1.000000     C
    C   1.0     0.881105     0.679546     0.109190  Biso 1.000000     C
    C   1.0     0.354323     0.651930     0.230701  Biso 1.000000     C
    C   1.0     0.854326     0.651932     0.230700  Biso 1.000000     C
    C   1.0     0.437464     0.786020     0.518628  Biso 1.000000     C
    C   1.0     0.937467     0.786022     0.518631  Biso 1.000000     C
    C   1.0     0.040605     0.839567     0.549698  Biso 1.000000     C
    C   1.0     0.540608     0.839567     0.549697  Biso 1.000000     C
    C   1.0     0.057654     0.781153     0.575045  Biso 1.000000     C
    C   1.0     0.557657     0.781152     0.575043  Biso 1.000000     C
    C   1.0     0.012727     0.721811     0.570681  Biso 1.000000     C
    C   1.0     0.512730     0.721810     0.570679  Biso 1.000000     C
    C   1.0     0.451182     0.726075     0.543017  Biso 1.000000     C
    C   1.0     0.951185     0.726078     0.543021  Biso 1.000000     C
    C   1.0     0.029971     0.652500     0.590569  Biso 1.000000     C
    C   1.0     0.529974     0.652499     0.590567  Biso 1.000000     C
    C   1.0     0.147045     0.512370     0.463928  Biso 1.000000     C
    C   1.0     0.647048     0.512370     0.463927  Biso 1.000000     C
    C   1.0     0.089761     0.560581     0.454715  Biso 1.000000     C
    C   1.0     0.589763     0.560579     0.454713  Biso 1.000000     C
    C   1.0     0.069657     0.522253     0.360308  Biso 1.000000     C
    C   1.0     0.569660     0.522250     0.360306  Biso 1.000000     C
    C   1.0     0.047717     0.429197     0.320462  Biso 1.000000     C
    C   1.0     0.547720     0.429194     0.320461  Biso 1.000000     C
    C   1.0     0.021075     0.578419     0.348038  Biso 1.000000     C
    C   1.0     0.521077     0.578415     0.348035  Biso 1.000000     C
    N   1.0     0.398337     0.320995     0.841843  Biso 1.000000     N
    N   1.0     0.898340     0.320996     0.841843  Biso 1.000000     N
    N   1.0     0.453323     0.054698     0.566798  Biso 1.000000     N
    N   1.0     0.953325     0.054697     0.566798  Biso 1.000000     N
    N   1.0     0.065001     0.521291     0.679330  Biso 1.000000     N
    N   1.0     0.565004     0.521290     0.679329  Biso 1.000000     N
    N   1.0     0.119942     0.512181     0.945287  Biso 1.000000     N
    N   1.0     0.619944     0.512181     0.945287  Biso 1.000000     N
    N   1.0     0.231672     0.158124     0.479132  Biso 1.000000     N
    N   1.0     0.731675     0.158126     0.479133  Biso 1.000000     N
    N   1.0     0.286632     0.433092     0.487885  Biso 1.000000     N
    N   1.0     0.786635     0.433094     0.487886  Biso 1.000000     N
    N   1.0     0.148395     0.679097     0.158112  Biso 1.000000     N
    N   1.0     0.648398     0.679098     0.158111  Biso 1.000000     N
    N   1.0     0.203322     0.945277     0.433168  Biso 1.000000     N
    N   1.0     0.703325     0.945277     0.433166  Biso 1.000000     N
    N   1.0     0.314952     0.478701     0.320722  Biso 1.000000     N
    N   1.0     0.814956     0.478703     0.320722  Biso 1.000000     N
    N   1.0     0.369953     0.487889     0.054770  Biso 1.000000     N
    N   1.0     0.869956     0.487890     0.054770  Biso 1.000000     N
    N   1.0     0.481674     0.841758     0.520798  Biso 1.000000     N
    N   1.0     0.981676     0.841760     0.520802  Biso 1.000000     N
    N   1.0     0.036636     0.566809     0.512115  Biso 1.000000     N
    N   1.0     0.536638     0.566807     0.512113  Biso 1.000000     N
    O   1.0     0.061410     0.968726     0.487232  Biso 1.000000     O
    O   1.0     0.561413     0.968726     0.487230  Biso 1.000000     O
    O   1.0     0.110736     0.086804     0.502723  Biso 1.000000     O
    O   1.0     0.610739     0.086804     0.502721  Biso 1.000000     O
    O   1.0     0.228031     0.518476     0.031242  Biso 1.000000     O
    O   1.0     0.728034     0.518477     0.031242  Biso 1.000000     O
    O   1.0     0.277382     0.415946     0.913094  Biso 1.000000     O
    O   1.0     0.777385     0.415947     0.913094  Biso 1.000000     O
    O   1.0     0.394698     0.512654     0.481424  Biso 1.000000     O
    O   1.0     0.894701     0.512656     0.481424  Biso 1.000000     O
    O   1.0     0.444032     0.497618     0.584223  Biso 1.000000     O
    O   1.0     0.944035     0.497620     0.584224  Biso 1.000000     O
    O   1.0     0.311407     0.031243     0.512783  Biso 1.000000     O
    O   1.0     0.811410     0.031242     0.512782  Biso 1.000000     O
    O   1.0     0.360739     0.913160     0.497269  Biso 1.000000     O
    O   1.0     0.860742     0.913159     0.497267  Biso 1.000000     O
    O   1.0     0.478026     0.481589     0.968831  Biso 1.000000     O
    O   1.0     0.978030     0.481590     0.968831  Biso 1.000000     O
    O   1.0     0.027406     0.584130     0.086985  Biso 1.000000     O
    O   1.0     0.527409     0.584130     0.086985  Biso 1.000000     O
    O   1.0     0.144703     0.487275     0.518613  Biso 1.000000     O
    O   1.0     0.644706     0.487276     0.518613  Biso 1.000000     O
    O   1.0     0.194013     0.502279     0.415795  Biso 1.000000     O
    O   1.0     0.694016     0.502280     0.415795  Biso 1.000000     O
   Zn   1.0     0.461025     0.923424     0.473999  Biso 1.000000    Zn
   Zn   1.0     0.961028     0.923424     0.474000  Biso 1.000000    Zn
   Zn   1.0     0.127690     0.550508     0.076473  Biso 1.000000    Zn
   Zn   1.0     0.627693     0.550509     0.076473  Biso 1.000000    Zn
   Zn   1.0     0.294343     0.525686     0.449293  Biso 1.000000    Zn
   Zn   1.0     0.794346     0.525687     0.449293  Biso 1.000000    Zn
   Zn   1.0     0.211021     0.076529     0.526019  Biso 1.000000    Zn
   Zn   1.0     0.711024     0.076530     0.526018  Biso 1.000000    Zn
   Zn   1.0     0.377670     0.449561     0.923577  Biso 1.000000    Zn
   Zn   1.0     0.877673     0.449562     0.923577  Biso 1.000000    Zn
   Zn   1.0     0.044354     0.474252     0.550744  Biso 1.000000    Zn
   Zn   1.0     0.544357     0.474251     0.550743  Biso 1.000000    Zn
   Br   1.0     0.447546     0.865294     0.323800  Biso 1.000000    Br
   Br   1.0     0.947551     0.865294     0.323800  Biso 1.000000    Br
   Br   1.0     0.114156     0.458363     0.134423  Biso 1.000000    Br
   Br   1.0     0.614159     0.458364     0.134423  Biso 1.000000    Br
   Br   1.0     0.280773     0.675961     0.541287  Biso 1.000000    Br
   Br   1.0     0.780776     0.675963     0.541286  Biso 1.000000    Br
   Br   1.0     0.197533     0.134666     0.676208  Biso 1.000000    Br
   Br   1.0     0.697535     0.134665     0.676207  Biso 1.000000    Br
   Br   1.0     0.364159     0.541731     0.865649  Biso 1.000000    Br
   Br   1.0     0.864163     0.541732     0.865649  Biso 1.000000    Br
   Br   1.0     0.030769     0.323974     0.458758  Biso 1.000000    Br
   Br   1.0     0.530773     0.323973     0.458756  Biso 1.000000    Br
