#======================================================================

# CRYSTAL DATA

#----------------------------------------------------------------------

data_VESTA_phase_1


_pd_phase_name                         MOF
_cell_length_a                         21.17500
_cell_length_b                         17.79600
_cell_length_c                         17.79800
_cell_angle_alpha                      119.91900
_cell_angle_beta                       89.99300
_cell_angle_gamma                      90.00700
_symmetry_space_group_name_H-M         "P 1"
_symmetry_Int_Tables_number            1

loop_
_symmetry_equiv_pos_as_xyz
   "x, y, z"

loop_
   _atom_site_label
   _atom_site_occupancy
   _atom_site_fract_x
   _atom_site_fract_y
   _atom_site_fract_z
   _atom_site_adp_type
   _atom_site_B_iso_or_equiv
   _atom_site_type_symbol
    H   1.0     0.459803     0.477130     0.929571  Biso 1.000000     H
    H   1.0     0.959822     0.476026     0.928816  Biso 1.000000     H
    H   1.0     0.038745     0.625878     0.961797  Biso 1.000000     H
    H   1.0     0.539266     0.626255     0.961508  Biso 1.000000     H
    H   1.0     0.457592     0.627833     0.986212  Biso 1.000000     H
    H   1.0     0.957028     0.626843     0.985990  Biso 1.000000     H
    H   1.0     0.380362     0.533718     0.856466  Biso 1.000000     H
    H   1.0     0.880212     0.532653     0.855718  Biso 1.000000     H
    H   1.0     0.069192     0.600835     0.817833  Biso 1.000000     H
    H   1.0     0.569338     0.600743     0.817177  Biso 1.000000     H
    H   1.0     0.038704     0.552190     0.664646  Biso 1.000000     H
    H   1.0     0.538348     0.551942     0.664122  Biso 1.000000     H
    H   1.0     0.357905     0.488500     0.702818  Biso 1.000000     H
    H   1.0     0.858258     0.487577     0.701892  Biso 1.000000     H
    H   1.0     0.070557     0.472313     0.846224  Biso 1.000000     H
    H   1.0     0.570459     0.472477     0.846070  Biso 1.000000     H
    H   1.0     0.081457     0.322411     0.805786  Biso 1.000000     H
    H   1.0     0.580909     0.322581     0.805655  Biso 1.000000     H
    H   1.0     0.442708     0.367499     0.792650  Biso 1.000000     H
    H   1.0     0.943142     0.366604     0.792292  Biso 1.000000     H
    H   1.0     0.483605     0.269296     0.723745  Biso 1.000000     H
    H   1.0     0.984346     0.268649     0.723493  Biso 1.000000     H
    H   1.0     0.006539     0.366257     0.726782  Biso 1.000000     H
    H   1.0     0.506067     0.366743     0.726892  Biso 1.000000     H
    H   1.0     0.471393     0.346809     0.929386  Biso 1.000000     H
    H   1.0     0.971631     0.345829     0.928823  Biso 1.000000     H
    H   1.0     0.051071     0.326080     0.942905  Biso 1.000000     H
    H   1.0     0.550803     0.326317     0.942779  Biso 1.000000     H
    H   1.0     0.008275     0.246517     0.852265  Biso 1.000000     H
    H   1.0     0.507499     0.247155     0.852511  Biso 1.000000     H
    H   1.0     0.126354     0.452447     0.522883  Biso 1.000000     H
    H   1.0     0.626382     0.452712     0.523931  Biso 1.000000     H
    H   1.0     0.205894     0.335857     0.373769  Biso 1.000000     H
    H   1.0     0.705439     0.336484     0.374131  Biso 1.000000     H
    H   1.0     0.124227     0.358945     0.372176  Biso 1.000000     H
    H   1.0     0.623723     0.359636     0.373093  Biso 1.000000     H
    H   1.0     0.046978     0.322803     0.466123  Biso 1.000000     H
    H   1.0     0.546890     0.323136     0.467186  Biso 1.000000     H
    H   1.0     0.235951     0.216734     0.398912  Biso 1.000000     H
    H   1.0     0.735832     0.217207     0.398738  Biso 1.000000     H
    H   1.0     0.204947     0.112031     0.447315  Biso 1.000000     H
    H   1.0     0.705326     0.112300     0.447102  Biso 1.000000     H
    H   1.0     0.024499     0.213924     0.510917  Biso 1.000000     H
    H   1.0     0.524915     0.214034     0.511966  Biso 1.000000     H
    H   1.0     0.236885     0.373480     0.527605  Biso 1.000000     H
    H   1.0     0.737006     0.373773     0.527758  Biso 1.000000     H
    H   1.0     0.247416     0.482589     0.677463  Biso 1.000000     H
    H   1.0     0.747994     0.482879     0.677605  Biso 1.000000     H
    H   1.0     0.109161     0.425036     0.632542  Biso 1.000000     H
    H   1.0     0.609626     0.425540     0.633446  Biso 1.000000     H
    H   1.0     0.149992     0.454097     0.730770  Biso 1.000000     H
    H   1.0     0.650781     0.454477     0.731418  Biso 1.000000     H
    H   1.0     0.172416     0.359955     0.633387  Biso 1.000000     H
    H   1.0     0.672931     0.360313     0.633876  Biso 1.000000     H
    H   1.0     0.138090     0.582432     0.653306  Biso 1.000000     H
    H   1.0     0.638339     0.582820     0.654274  Biso 1.000000     H
    H   1.0     0.217548     0.616048     0.673678  Biso 1.000000     H
    H   1.0     0.717826     0.616394     0.673896  Biso 1.000000     H
    H   1.0     0.174233     0.604870     0.752901  Biso 1.000000     H
    H   1.0     0.675033     0.605231     0.753522  Biso 1.000000     H
    H   1.0     0.293074     0.071343     0.547133  Biso 1.000000     H
    H   1.0     0.792891     0.070691     0.547539  Biso 1.000000     H
    H   1.0     0.371860     0.038015     0.663925  Biso 1.000000     H
    H   1.0     0.872266     0.038293     0.664535  Biso 1.000000     H
    H   1.0     0.290137     0.013990     0.640716  Biso 1.000000     H
    H   1.0     0.790579     0.013798     0.641466  Biso 1.000000     H
    H   1.0     0.213400     0.144477     0.676988  Biso 1.000000     H
    H   1.0     0.713468     0.143809     0.677369  Biso 1.000000     H
    H   1.0     0.402457     0.181804     0.782581  Biso 1.000000     H
    H   1.0     0.902530     0.182403     0.783148  Biso 1.000000     H
    H   1.0     0.372057     0.334899     0.887284  Biso 1.000000     H
    H   1.0     0.871680     0.335386     0.887601  Biso 1.000000     H
    H   1.0     0.191537     0.298184     0.785880  Biso 1.000000     H
    H   1.0     0.691154     0.297352     0.785969  Biso 1.000000     H
    H   1.0     0.403832     0.153821     0.625946  Biso 1.000000     H
    H   1.0     0.903626     0.154045     0.626274  Biso 1.000000     H
    H   1.0     0.414761     0.194602     0.516667  Biso 1.000000     H
    H   1.0     0.914111     0.194812     0.516998  Biso 1.000000     H
    H   1.0     0.276397     0.207892     0.574090  Biso 1.000000     H
    H   1.0     0.775852     0.207638     0.574629  Biso 1.000000     H
    H   1.0     0.317660     0.276887     0.545071  Biso 1.000000     H
    H   1.0     0.816825     0.276739     0.545483  Biso 1.000000     H
    H   1.0     0.339745     0.273338     0.639279  Biso 1.000000     H
    H   1.0     0.839162     0.273316     0.639671  Biso 1.000000     H
    H   1.0     0.305017     0.071590     0.417020  Biso 1.000000     H
    H   1.0     0.804692     0.071092     0.417431  Biso 1.000000     H
    H   1.0     0.384493     0.057630     0.383343  Biso 1.000000     H
    H   1.0     0.884137     0.057856     0.383724  Biso 1.000000     H
    H   1.0     0.341707     0.148352     0.394387  Biso 1.000000     H
    H   1.0     0.840828     0.148188     0.394786  Biso 1.000000     H
    H   1.0     0.210170     0.523465     0.070721  Biso 1.000000     H
    H   1.0     0.709504     0.523481     0.071136  Biso 1.000000     H
    H   1.0     0.289338     0.373864     0.037870  Biso 1.000000     H
    H   1.0     0.788624     0.373846     0.038392  Biso 1.000000     H
    H   1.0     0.207623     0.372656     0.013563  Biso 1.000000     H
    H   1.0     0.706893     0.372629     0.014207  Biso 1.000000     H
    H   1.0     0.130707     0.466807     0.143829  Biso 1.000000     H
    H   1.0     0.629994     0.466637     0.144267  Biso 1.000000     H
    H   1.0     0.319679     0.398686     0.181757  Biso 1.000000     H
    H   1.0     0.819145     0.399473     0.182705  Biso 1.000000     H
    H   1.0     0.289104     0.447104     0.334856  Biso 1.000000     H
    H   1.0     0.788520     0.448289     0.335889  Biso 1.000000     H
    H   1.0     0.108670     0.511731     0.297591  Biso 1.000000     H
    H   1.0     0.607926     0.511892     0.298036  Biso 1.000000     H
    H   1.0     0.320906     0.527516     0.153516  Biso 1.000000     H
    H   1.0     0.820329     0.527325     0.153695  Biso 1.000000     H
    H   1.0     0.331538     0.677487     0.194041  Biso 1.000000     H
    H   1.0     0.831216     0.677131     0.194331  Biso 1.000000     H
    H   1.0     0.193309     0.632834     0.207411  Biso 1.000000     H
    H   1.0     0.692810     0.633087     0.207575  Biso 1.000000     H
    H   1.0     0.234360     0.730909     0.276273  Biso 1.000000     H
    H   1.0     0.734035     0.730995     0.276456  Biso 1.000000     H
    H   1.0     0.256728     0.633353     0.272955  Biso 1.000000     H
    H   1.0     0.756115     0.633351     0.273144  Biso 1.000000     H
    H   1.0     0.221715     0.653709     0.070903  Biso 1.000000     H
    H   1.0     0.721759     0.653839     0.070860  Biso 1.000000     H
    H   1.0     0.301115     0.673817     0.056964  Biso 1.000000     H
    H   1.0     0.801256     0.673882     0.057417  Biso 1.000000     H
    H   1.0     0.258157     0.753164     0.147551  Biso 1.000000     H
    H   1.0     0.758152     0.753218     0.147827  Biso 1.000000     H
    H   1.0     0.376082     0.547696     0.476522  Biso 1.000000     H
    H   1.0     0.876738     0.547334     0.476523  Biso 1.000000     H
    H   1.0     0.455342     0.664000     0.626081  Biso 1.000000     H
    H   1.0     0.956020     0.663491     0.626087  Biso 1.000000     H
    H   1.0     0.373616     0.641073     0.627395  Biso 1.000000     H
    H   1.0     0.874313     0.640398     0.627367  Biso 1.000000     H
    H   1.0     0.296689     0.677486     0.533481  Biso 1.000000     H
    H   1.0     0.797366     0.676877     0.533320  Biso 1.000000     H
    H   1.0     0.485797     0.783066     0.600884  Biso 1.000000     H
    H   1.0     0.986293     0.782915     0.601685  Biso 1.000000     H
    H   1.0     0.455137     0.887802     0.552391  Biso 1.000000     H
    H   1.0     0.955670     0.887979     0.553613  Biso 1.000000     H
    H   1.0     0.274576     0.786368     0.488569  Biso 1.000000     H
    H   1.0     0.775273     0.786106     0.488768  Biso 1.000000     H
    H   1.0     0.486820     0.626490     0.472552  Biso 1.000000     H
    H   1.0     0.987359     0.626207     0.472388  Biso 1.000000     H
    H   1.0     0.497775     0.517660     0.322797  Biso 1.000000     H
    H   1.0     0.998108     0.517093     0.322472  Biso 1.000000     H
    H   1.0     0.359339     0.574637     0.366829  Biso 1.000000     H
    H   1.0     0.859832     0.574729     0.367081  Biso 1.000000     H
    H   1.0     0.400515     0.545823     0.268896  Biso 1.000000     H
    H   1.0     0.900837     0.545736     0.268983  Biso 1.000000     H
    H   1.0     0.422587     0.639991     0.366475  Biso 1.000000     H
    H   1.0     0.923171     0.639837     0.366472  Biso 1.000000     H
    H   1.0     0.388433     0.417194     0.346029  Biso 1.000000     H
    H   1.0     0.888421     0.417404     0.346176  Biso 1.000000     H
    H   1.0     0.467960     0.383943     0.326095  Biso 1.000000     H
    H   1.0     0.967858     0.383618     0.326197  Biso 1.000000     H
    H   1.0     0.424871     0.395108     0.246704  Biso 1.000000     H
    H   1.0     0.924918     0.394932     0.246782  Biso 1.000000     H
    H   1.0     0.042759     0.928532     0.452349  Biso 1.000000     H
    H   1.0     0.543398     0.929045     0.452791  Biso 1.000000     H
    H   1.0     0.121737     0.961682     0.335542  Biso 1.000000     H
    H   1.0     0.622489     0.962266     0.336141  Biso 1.000000     H
    H   1.0     0.040004     0.985728     0.358551  Biso 1.000000     H
    H   1.0     0.540768     0.986428     0.359239  Biso 1.000000     H
    H   1.0     0.463912     0.855963     0.322952  Biso 1.000000     H
    H   1.0     0.963143     0.855492     0.322289  Biso 1.000000     H
    H   1.0     0.152394     0.817551     0.217120  Biso 1.000000     H
    H   1.0     0.652971     0.818581     0.217303  Biso 1.000000     H
    H   1.0     0.121837     0.664480     0.112569  Biso 1.000000     H
    H   1.0     0.622454     0.665609     0.112393  Biso 1.000000     H
    H   1.0     0.441938     0.702351     0.213905  Biso 1.000000     H
    H   1.0     0.941149     0.701851     0.213609  Biso 1.000000     H
    H   1.0     0.153611     0.846163     0.373705  Biso 1.000000     H
    H   1.0     0.654185     0.846390     0.374114  Biso 1.000000     H
    H   1.0     0.164515     0.805206     0.482706  Biso 1.000000     H
    H   1.0     0.664796     0.805469     0.483328  Biso 1.000000     H
    H   1.0     0.026070     0.792132     0.425710  Biso 1.000000     H
    H   1.0     0.526536     0.792321     0.425589  Biso 1.000000     H
    H   1.0     0.067351     0.723056     0.454578  Biso 1.000000     H
    H   1.0     0.567620     0.723242     0.454637  Biso 1.000000     H
    H   1.0     0.089337     0.726649     0.360357  Biso 1.000000     H
    H   1.0     0.589915     0.726849     0.360521  Biso 1.000000     H
    H   1.0     0.055112     0.928618     0.582923  Biso 1.000000     H
    H   1.0     0.555053     0.928584     0.582758  Biso 1.000000     H
    H   1.0     0.134633     0.941967     0.616245  Biso 1.000000     H
    H   1.0     0.634475     0.942360     0.616638  Biso 1.000000     H
    H   1.0     0.091545     0.851465     0.605212  Biso 1.000000     H
    H   1.0     0.591496     0.851694     0.605401  Biso 1.000000     H
    C   1.0     0.114258     0.465091     0.948863  Biso 1.000000     C
    C   1.0     0.614179     0.465082     0.948512  Biso 1.000000     C
    C   1.0     0.494964     0.589330     0.940154  Biso 1.000000     C
    C   1.0     0.994584     0.588663     0.940112  Biso 1.000000     C
    C   1.0     0.477841     0.569427     0.849820  Biso 1.000000     C
    C   1.0     0.977675     0.568864     0.849743  Biso 1.000000     C
    C   1.0     0.417514     0.538577     0.816620  Biso 1.000000     C
    C   1.0     0.917466     0.537758     0.816133  Biso 1.000000     C
    C   1.0     0.021806     0.575891     0.795052  Biso 1.000000     C
    C   1.0     0.521848     0.576040     0.794751  Biso 1.000000     C
    C   1.0     0.505258     0.549224     0.709454  Biso 1.000000     C
    C   1.0     0.000000     0.549166     0.709690  Biso 1.000000     C
    C   1.0     0.404235     0.512892     0.730795  Biso 1.000000     C
    C   1.0     0.904465     0.512170     0.730254  Biso 1.000000     C
    C   1.0     0.055420     0.451932     0.892636  Biso 1.000000     C
    C   1.0     0.555265     0.452243     0.892579  Biso 1.000000     C
    C   1.0     0.037370     0.355233     0.838082  Biso 1.000000     C
    C   1.0     0.536931     0.355640     0.838123  Biso 1.000000     C
    C   1.0     0.489415     0.339443     0.766808  Biso 1.000000     C
    C   1.0     0.989943     0.338821     0.766602  Biso 1.000000     C
    C   1.0     0.015765     0.316598     0.893730  Biso 1.000000     C
    C   1.0     0.515323     0.317171     0.893913  Biso 1.000000     C
    C   1.0     0.280803     0.483201     0.534955  Biso 1.000000     C
    C   1.0     0.780892     0.483510     0.534896  Biso 1.000000     C
    C   1.0     0.161582     0.351236     0.410658  Biso 1.000000     C
    C   1.0     0.661251     0.351798     0.411276  Biso 1.000000     C
    C   1.0     0.144446     0.280574     0.430318  Biso 1.000000     C
    C   1.0     0.644324     0.281010     0.430837  Biso 1.000000     C
    C   1.0     0.084133     0.278084     0.461174  Biso 1.000000     C
    C   1.0     0.584137     0.278427     0.462004  Biso 1.000000     C
    C   1.0     0.188463     0.218878     0.423596  Biso 1.000000     C
    C   1.0     0.688458     0.219277     0.423709  Biso 1.000000     C
    C   1.0     0.171843     0.160094     0.450113  Biso 1.000000     C
    C   1.0     0.672112     0.160387     0.450198  Biso 1.000000     C
    C   1.0     0.070823     0.217631     0.486538  Biso 1.000000     C
    C   1.0     0.571107     0.217877     0.487338  Biso 1.000000     C
    C   1.0     0.221801     0.440204     0.547798  Biso 1.000000     C
    C   1.0     0.721973     0.440541     0.548079  Biso 1.000000     C
    C   1.0     0.203471     0.482174     0.644397  Biso 1.000000     C
    C   1.0     0.703935     0.482519     0.644778  Biso 1.000000     C
    C   1.0     0.155844     0.427133     0.660628  Biso 1.000000     C
    C   1.0     0.656410     0.427528     0.661248  Biso 1.000000     C
    C   1.0     0.182006     0.576396     0.682880  Biso 1.000000     C
    C   1.0     0.682465     0.576762     0.683435  Biso 1.000000     C
    C   1.0     0.447525     0.051260     0.516221  Biso 1.000000     C
    C   1.0     0.947238     0.051593     0.516489  Biso 1.000000     C
    C   1.0     0.327747     0.059848     0.648406  Biso 1.000000     C
    C   1.0     0.828009     0.059835     0.649025  Biso 1.000000     C
    C   1.0     0.310891     0.150174     0.718946  Biso 1.000000     C
    C   1.0     0.810975     0.150116     0.719466  Biso 1.000000     C
    C   1.0     0.250699     0.183924     0.721579  Biso 1.000000     C
    C   1.0     0.750674     0.183489     0.721975  Biso 1.000000     C
    C   1.0     0.355077     0.204699     0.780542  Biso 1.000000     C
    C   1.0     0.855052     0.204977     0.781025  Biso 1.000000     C
    C   1.0     0.338801     0.289997     0.839299  Biso 1.000000     C
    C   1.0     0.838531     0.290220     0.839634  Biso 1.000000     C
    C   1.0     0.237736     0.269728     0.781990  Biso 1.000000     C
    C   1.0     0.737466     0.269246     0.782238  Biso 1.000000     C
    C   1.0     0.388695     0.107497     0.559250  Biso 1.000000     C
    C   1.0     0.888398     0.107642     0.559639  Biso 1.000000     C
    C   1.0     0.370682     0.162215     0.517142  Biso 1.000000     C
    C   1.0     0.870129     0.162267     0.517524  Biso 1.000000     C
    C   1.0     0.323215     0.233636     0.572079  Biso 1.000000     C
    C   1.0     0.822579     0.233530     0.572509  Biso 1.000000     C
    C   1.0     0.349155     0.106745     0.422950  Biso 1.000000     C
    C   1.0     0.848614     0.106647     0.423349  Biso 1.000000     C
    C   1.0     0.364589     0.535021     0.051015  Biso 1.000000     C
    C   1.0     0.863892     0.534537     0.050989  Biso 1.000000     C
    C   1.0     0.245119     0.410942     0.059499  Biso 1.000000     C
    C   1.0     0.744424     0.410970     0.060046  Biso 1.000000     C
    C   1.0     0.228174     0.430656     0.149835  Biso 1.000000     C
    C   1.0     0.727540     0.430876     0.150464  Biso 1.000000     C
    C   1.0     0.167940     0.461664     0.183404  Biso 1.000000     C
    C   1.0     0.667281     0.461798     0.183947  Biso 1.000000     C
    C   1.0     0.272275     0.423565     0.204508  Biso 1.000000     C
    C   1.0     0.771698     0.424233     0.205342  Biso 1.000000     C
    C   1.0     0.255919     0.450210     0.289841  Biso 1.000000     C
    C   1.0     0.755306     0.451033     0.290704  Biso 1.000000     C
    C   1.0     0.154896     0.487192     0.269260  Biso 1.000000     C
    C   1.0     0.654196     0.487456     0.269821  Biso 1.000000     C
    C   1.0     0.305723     0.547892     0.107121  Biso 1.000000     C
    C   1.0     0.805120     0.547693     0.107306  Biso 1.000000     C
    C   1.0     0.287502     0.644522     0.161703  Biso 1.000000     C
    C   1.0     0.787130     0.644406     0.161926  Biso 1.000000     C
    C   1.0     0.240071     0.660759     0.233140  Biso 1.000000     C
    C   1.0     0.739609     0.660823     0.233322  Biso 1.000000     C
    C   1.0     0.265794     0.683118     0.106070  Biso 1.000000     C
    C   1.0     0.765752     0.683169     0.106312  Biso 1.000000     C
    C   1.0     0.031229     0.516364     0.464996  Biso 1.000000     C
    C   1.0     0.530528     0.516672     0.465390  Biso 1.000000     C
    C   1.0     0.411112     0.648713     0.589034  Biso 1.000000     C
    C   1.0     0.911775     0.648218     0.589077  Biso 1.000000     C
    C   1.0     0.394208     0.719430     0.569354  Biso 1.000000     C
    C   1.0     0.894798     0.719050     0.569612  Biso 1.000000     C
    C   1.0     0.333966     0.722052     0.538398  Biso 1.000000     C
    C   1.0     0.834584     0.721650     0.538550  Biso 1.000000     C
    C   1.0     0.438359     0.781008     0.576110  Biso 1.000000     C
    C   1.0     0.938897     0.780857     0.576798  Biso 1.000000     C
    C   1.0     0.421924     0.839827     0.549565  Biso 1.000000     C
    C   1.0     0.922485     0.839817     0.550437  Biso 1.000000     C
    C   1.0     0.320838     0.782533     0.513015  Biso 1.000000     C
    C   1.0     0.821488     0.782262     0.513326  Biso 1.000000     C
    C   1.0     0.471695     0.559756     0.452239  Biso 1.000000     C
    C   1.0     0.972287     0.559449     0.452067  Biso 1.000000     C
    C   1.0     0.453708     0.517828     0.355530  Biso 1.000000     C
    C   1.0     0.954089     0.517547     0.355433  Biso 1.000000     C
    C   1.0     0.406125     0.572743     0.339064  Biso 1.000000     C
    C   1.0     0.906578     0.572654     0.339133  Biso 1.000000     C
    C   1.0     0.432423     0.423497     0.316757  Biso 1.000000     C
    C   1.0     0.932497     0.423356     0.316834  Biso 1.000000     C
    C   1.0     0.197154     0.948798     0.483475  Biso 1.000000     C
    C   1.0     0.697824     0.948795     0.483975  Biso 1.000000     C
    C   1.0     0.077579     0.939893     0.351023  Biso 1.000000     C
    C   1.0     0.578305     0.940497     0.351581  Biso 1.000000     C
    C   1.0     0.060732     0.849532     0.280544  Biso 1.000000     C
    C   1.0     0.561406     0.850226     0.280972  Biso 1.000000     C
    C   1.0     0.501186     0.816526     0.278307  Biso 1.000000     C
    C   1.0     0.000000     0.815935     0.277860  Biso 1.000000     C
    C   1.0     0.104946     0.794813     0.219127  Biso 1.000000     C
    C   1.0     0.605566     0.795724     0.219310  Biso 1.000000     C
    C   1.0     0.088578     0.709529     0.160433  Biso 1.000000     C
    C   1.0     0.589228     0.710483     0.160456  Biso 1.000000     C
    C   1.0     0.488159     0.730772     0.217810  Biso 1.000000     C
    C   1.0     0.987421     0.730144     0.217509  Biso 1.000000     C
    C   1.0     0.138395     0.892461     0.440373  Biso 1.000000     C
    C   1.0     0.638972     0.892673     0.440791  Biso 1.000000     C
    C   1.0     0.120434     0.837681     0.482438  Biso 1.000000     C
    C   1.0     0.620769     0.837896     0.482768  Biso 1.000000     C
    C   1.0     0.072887     0.766338     0.427600  Biso 1.000000     C
    C   1.0     0.573308     0.766528     0.427688  Biso 1.000000     C
    C   1.0     0.099110     0.893121     0.576727  Biso 1.000000     C
    C   1.0     0.599120     0.893334     0.576911  Biso 1.000000     C
    N   1.0     0.447617     0.516949     0.677022  Biso 1.000000     N
    N   1.0     0.947998     0.516601     0.676850  Biso 1.000000     N
    N   1.0     0.502684     0.509101     0.946083  Biso 1.000000     N
    N   1.0     0.000000     0.508364     0.945871  Biso 1.000000     N
    N   1.0     0.114210     0.159778     0.482376  Biso 1.000000     N
    N   1.0     0.614640     0.160028     0.482828  Biso 1.000000     N
    N   1.0     0.169254     0.437129     0.490967  Biso 1.000000     N
    N   1.0     0.669119     0.437594     0.491662  Biso 1.000000     N
    N   1.0     0.281309     0.322965     0.839736  Biso 1.000000     N
    N   1.0     0.780904     0.322812     0.839981  Biso 1.000000     N
    N   1.0     0.335760     0.054233     0.562443  Biso 1.000000     N
    N   1.0     0.835760     0.054136     0.563003  Biso 1.000000     N
    N   1.0     0.198404     0.482716     0.322651  Biso 1.000000     N
    N   1.0     0.697725     0.483358     0.323392  Biso 1.000000     N
    N   1.0     0.252944     0.491277     0.053774  Biso 1.000000     N
    N   1.0     0.752244     0.491206     0.054140  Biso 1.000000     N
    N   1.0     0.364360     0.840257     0.517202  Biso 1.000000     N
    N   1.0     0.864986     0.840187     0.517899  Biso 1.000000     N
    N   1.0     0.418849     0.562827     0.508724  Biso 1.000000     N
    N   1.0     0.919533     0.562432     0.508653  Biso 1.000000     N
    N   1.0     0.030992     0.676730     0.159914  Biso 1.000000     N
    N   1.0     0.531708     0.677559     0.159998  Biso 1.000000     N
    N   1.0     0.085463     0.945642     0.437063  Biso 1.000000     N
    N   1.0     0.586158     0.946050     0.437530  Biso 1.000000     N
    O   1.0     0.161995     0.420850     0.907724  Biso 1.000000     O
    O   1.0     0.661592     0.420093     0.907222  Biso 1.000000     O
    O   1.0     0.112158     0.518457     0.030149  Biso 1.000000     O
    O   1.0     0.612565     0.518901     0.029729  Biso 1.000000     O
    O   1.0     0.328241     0.486487     0.579762  Biso 1.000000     O
    O   1.0     0.828644     0.486275     0.579002  Biso 1.000000     O
    O   1.0     0.279200     0.511008     0.481370  Biso 1.000000     O
    O   1.0     0.778814     0.511744     0.481691  Biso 1.000000     O
    O   1.0     0.495290     0.092412     0.513125  Biso 1.000000     O
    O   1.0     0.994779     0.092761     0.512840  Biso 1.000000     O
    O   1.0     0.445389     0.969927     0.488299  Biso 1.000000     O
    O   1.0     0.945400     0.970293     0.488925  Biso 1.000000     O
    O   1.0     0.412181     0.579586     0.092188  Biso 1.000000     O
    O   1.0     0.911662     0.578761     0.092087  Biso 1.000000     O
    O   1.0     0.362634     0.481492     0.969716  Biso 1.000000     O
    O   1.0     0.861699     0.481295     0.969703  Biso 1.000000     O
    O   1.0     0.078858     0.513402     0.420629  Biso 1.000000     O
    O   1.0     0.578312     0.513892     0.421292  Biso 1.000000     O
    O   1.0     0.029284     0.488248     0.518337  Biso 1.000000     O
    O   1.0     0.528358     0.488333     0.518488  Biso 1.000000     O
    O   1.0     0.244941     0.907700     0.486625  Biso 1.000000     O
    O   1.0     0.745420     0.907640     0.487445  Biso 1.000000     O
    O   1.0     0.194920     0.030123     0.511481  Biso 1.000000     O
    O   1.0     0.695832     0.030138     0.511711  Biso 1.000000     O
   Cl   1.0     0.005669     0.459295     0.135124  Biso 1.000000    Cl
   Cl   1.0     0.505852     0.460271     0.135283  Biso 1.000000    Cl
   Cl   1.0     0.172654     0.675185     0.540099  Biso 1.000000    Cl
   Cl   1.0     0.672414     0.675813     0.540927  Biso 1.000000    Cl
   Cl   1.0     0.338949     0.865032     0.324456  Biso 1.000000    Cl
   Cl   1.0     0.838956     0.864851     0.325208  Biso 1.000000    Cl
   Cl   1.0     0.255633     0.540355     0.864593  Biso 1.000000    Cl
   Cl   1.0     0.755114     0.540577     0.865181  Biso 1.000000    Cl
   Cl   1.0     0.421891     0.324564     0.459132  Biso 1.000000    Cl
   Cl   1.0     0.922409     0.324247     0.459360  Biso 1.000000    Cl
   Cl   1.0     0.088366     0.134577     0.675005  Biso 1.000000    Cl
   Cl   1.0     0.588867     0.135149     0.675450  Biso 1.000000    Cl
   Zn   1.0     0.010774     0.545837     0.078290  Biso 1.000000    Zn
   Zn   1.0     0.511798     0.546763     0.078436  Biso 1.000000    Zn
   Zn   1.0     0.178453     0.532080     0.453527  Biso 1.000000    Zn
   Zn   1.0     0.677434     0.532672     0.454282  Biso 1.000000    Zn
   Zn   1.0     0.344102     0.921843     0.467687  Biso 1.000000    Zn
   Zn   1.0     0.845075     0.921787     0.468436  Biso 1.000000    Zn
   Zn   1.0     0.261332     0.453855     0.921413  Biso 1.000000    Zn
   Zn   1.0     0.760306     0.453631     0.921591  Biso 1.000000    Zn
   Zn   1.0     0.426960     0.467687     0.546174  Biso 1.000000    Zn
   Zn   1.0     0.927985     0.467343     0.545946  Biso 1.000000    Zn
   Zn   1.0     0.093602     0.078147     0.531794  Biso 1.000000    Zn
   Zn   1.0     0.594650     0.078369     0.532277  Biso 1.000000    Zn
