#======================================================================

# CRYSTAL DATA

#----------------------------------------------------------------------

data_VESTA_phase_1


_pd_phase_name                         MOF
_cell_length_a                         11.43100
_cell_length_b                         21.23300
_cell_length_c                         16.19500
_cell_angle_alpha                      90.00100
_cell_angle_beta                       90.00700
_cell_angle_gamma                      92.90000
_symmetry_space_group_name_H-M         "P 1"
_symmetry_Int_Tables_number            1

loop_
_symmetry_equiv_pos_as_xyz
   "x, y, z"

loop_
   _atom_site_label
   _atom_site_occupancy
   _atom_site_fract_x
   _atom_site_fract_y
   _atom_site_fract_z
   _atom_site_adp_type
   _atom_site_B_iso_or_equiv
   _atom_site_type_symbol
    H   1.0     0.294773     0.151760     0.571992  Biso 1.000000     H
    H   1.0     0.294800     0.651614     0.571968  Biso 1.000000     H
    H   1.0     0.794784     0.151777     0.571996  Biso 1.000000     H
    H   1.0     0.794773     0.651623     0.571966  Biso 1.000000     H
    H   1.0     0.389657     0.085453     0.677583  Biso 1.000000     H
    H   1.0     0.389721     0.585301     0.677563  Biso 1.000000     H
    H   1.0     0.889625     0.085428     0.677571  Biso 1.000000     H
    H   1.0     0.889703     0.585319     0.677567  Biso 1.000000     H
    H   1.0     0.130849     0.143136     0.852395  Biso 1.000000     H
    H   1.0     0.130842     0.642906     0.852364  Biso 1.000000     H
    H   1.0     0.630834     0.143119     0.852390  Biso 1.000000     H
    H   1.0     0.630815     0.642909     0.852365  Biso 1.000000     H
    H   1.0     0.048543     0.208579     0.740691  Biso 1.000000     H
    H   1.0     0.048495     0.708353     0.740659  Biso 1.000000     H
    H   1.0     0.548576     0.208598     0.740698  Biso 1.000000     H
    H   1.0     0.548450     0.708354     0.740659  Biso 1.000000     H
    H   1.0     0.205262     0.098302     0.072044  Biso 1.000000     H
    H   1.0     0.205323     0.598421     0.071871  Biso 1.000000     H
    H   1.0     0.705237     0.098315     0.072038  Biso 1.000000     H
    H   1.0     0.705268     0.598389     0.071897  Biso 1.000000     H
    H   1.0     0.110528     0.164706     0.177587  Biso 1.000000     H
    H   1.0     0.110427     0.664734     0.177469  Biso 1.000000     H
    H   1.0     0.610505     0.164711     0.177590  Biso 1.000000     H
    H   1.0     0.610433     0.664748     0.177466  Biso 1.000000     H
    H   1.0     0.369422     0.107086     0.352400  Biso 1.000000     H
    H   1.0     0.369348     0.607125     0.352286  Biso 1.000000     H
    H   1.0     0.869413     0.107081     0.352392  Biso 1.000000     H
    H   1.0     0.869380     0.607154     0.352283  Biso 1.000000     H
    H   1.0     0.451635     0.041579     0.240750  Biso 1.000000     H
    H   1.0     0.451739     0.541720     0.240568  Biso 1.000000     H
    H   1.0     0.951609     0.041572     0.240729  Biso 1.000000     H
    H   1.0     0.951678     0.541700     0.240588  Biso 1.000000     H
    H   1.0     0.205180     0.348364     0.428048  Biso 1.000000     H
    H   1.0     0.205148     0.848187     0.427984  Biso 1.000000     H
    H   1.0     0.705155     0.348361     0.428042  Biso 1.000000     H
    H   1.0     0.705147     0.848198     0.428010  Biso 1.000000     H
    H   1.0     0.110226     0.414647     0.322441  Biso 1.000000     H
    H   1.0     0.110326     0.914550     0.322420  Biso 1.000000     H
    H   1.0     0.610215     0.414656     0.322438  Biso 1.000000     H
    H   1.0     0.610312     0.914553     0.322428  Biso 1.000000     H
    H   1.0     0.369110     0.357055     0.147640  Biso 1.000000     H
    H   1.0     0.369140     0.856856     0.147607  Biso 1.000000     H
    H   1.0     0.869100     0.357059     0.147638  Biso 1.000000     H
    H   1.0     0.869090     0.856846     0.147611  Biso 1.000000     H
    H   1.0     0.451516     0.291637     0.259351  Biso 1.000000     H
    H   1.0     0.451384     0.791383     0.259309  Biso 1.000000     H
    H   1.0     0.951483     0.291628     0.259347  Biso 1.000000     H
    H   1.0     0.951365     0.791382     0.259320  Biso 1.000000     H
    H   1.0     0.294639     0.401571     0.928133  Biso 1.000000     H
    H   1.0     0.294698     0.901662     0.927969  Biso 1.000000     H
    H   1.0     0.794590     0.401560     0.928143  Biso 1.000000     H
    H   1.0     0.794704     0.901669     0.927963  Biso 1.000000     H
    H   1.0     0.389541     0.335250     0.822544  Biso 1.000000     H
    H   1.0     0.389444     0.835280     0.822410  Biso 1.000000     H
    H   1.0     0.889540     0.335269     0.822542  Biso 1.000000     H
    H   1.0     0.889423     0.835265     0.822414  Biso 1.000000     H
    H   1.0     0.130609     0.392841     0.647722  Biso 1.000000     H
    H   1.0     0.130516     0.892896     0.647615  Biso 1.000000     H
    H   1.0     0.630589     0.392847     0.647720  Biso 1.000000     H
    H   1.0     0.630506     0.892886     0.647619  Biso 1.000000     H
    H   1.0     0.048230     0.458260     0.759430  Biso 1.000000     H
    H   1.0     0.048332     0.958411     0.759266  Biso 1.000000     H
    H   1.0     0.548200     0.458259     0.759428  Biso 1.000000     H
    H   1.0     0.548337     0.958413     0.759273  Biso 1.000000     H
    C   1.0     0.261020     0.148461     0.634920  Biso 1.000000     C
    C   1.0     0.261024     0.648285     0.634887  Biso 1.000000     C
    C   1.0     0.761033     0.148474     0.634924  Biso 1.000000     C
    C   1.0     0.760992     0.648285     0.634883  Biso 1.000000     C
    C   1.0     0.313259     0.111535     0.693565  Biso 1.000000     C
    C   1.0     0.313278     0.611358     0.693517  Biso 1.000000     C
    C   1.0     0.813249     0.111528     0.693555  Biso 1.000000     C
    C   1.0     0.813254     0.611370     0.693522  Biso 1.000000     C
    C   1.0     0.268154     0.108865     0.774381  Biso 1.000000     C
    C   1.0     0.268131     0.608659     0.774316  Biso 1.000000     C
    C   1.0     0.768114     0.108841     0.774363  Biso 1.000000     C
    C   1.0     0.768120     0.608679     0.774323  Biso 1.000000     C
    C   1.0     0.169917     0.143753     0.791169  Biso 1.000000     C
    C   1.0     0.169893     0.643538     0.791132  Biso 1.000000     C
    C   1.0     0.669915     0.143754     0.791168  Biso 1.000000     C
    C   1.0     0.669856     0.643540     0.791129  Biso 1.000000     C
    C   1.0     0.123497     0.180043     0.729013  Biso 1.000000     C
    C   1.0     0.123465     0.679827     0.728990  Biso 1.000000     C
    C   1.0     0.623520     0.180055     0.729016  Biso 1.000000     C
    C   1.0     0.623418     0.679826     0.728987  Biso 1.000000     C
    C   1.0     0.327821     0.074172     0.838187  Biso 1.000000     C
    C   1.0     0.327810     0.574007     0.838126  Biso 1.000000     C
    C   1.0     0.827826     0.074201     0.838187  Biso 1.000000     C
    C   1.0     0.827786     0.574003     0.838121  Biso 1.000000     C
    C   1.0     0.239094     0.101644     0.134955  Biso 1.000000     C
    C   1.0     0.239129     0.601774     0.134787  Biso 1.000000     C
    C   1.0     0.739071     0.101650     0.134948  Biso 1.000000     C
    C   1.0     0.739073     0.601747     0.134812  Biso 1.000000     C
    C   1.0     0.186926     0.138619     0.193573  Biso 1.000000     C
    C   1.0     0.186875     0.638681     0.193426  Biso 1.000000     C
    C   1.0     0.686901     0.138622     0.193570  Biso 1.000000     C
    C   1.0     0.686859     0.638680     0.193430  Biso 1.000000     C
    C   1.0     0.232041     0.141300     0.274389  Biso 1.000000     C
    C   1.0     0.231949     0.641306     0.274255  Biso 1.000000     C
    C   1.0     0.732018     0.141297     0.274386  Biso 1.000000     C
    C   1.0     0.732022     0.641371     0.274237  Biso 1.000000     C
    C   1.0     0.330320     0.106440     0.291178  Biso 1.000000     C
    C   1.0     0.330294     0.606497     0.291048  Biso 1.000000     C
    C   1.0     0.830297     0.106435     0.291173  Biso 1.000000     C
    C   1.0     0.830286     0.606509     0.291058  Biso 1.000000     C
    C   1.0     0.376670     0.070103     0.229049  Biso 1.000000     C
    C   1.0     0.376756     0.570240     0.228904  Biso 1.000000     C
    C   1.0     0.876649     0.070104     0.229038  Biso 1.000000     C
    C   1.0     0.876702     0.570224     0.228919  Biso 1.000000     C
    C   1.0     0.172393     0.176027     0.338169  Biso 1.000000     C
    C   1.0     0.172250     0.675929     0.338061  Biso 1.000000     C
    C   1.0     0.672373     0.176015     0.338173  Biso 1.000000     C
    C   1.0     0.672234     0.675946     0.338048  Biso 1.000000     C
    C   1.0     0.238964     0.351701     0.365132  Biso 1.000000     C
    C   1.0     0.238909     0.851495     0.365059  Biso 1.000000     C
    C   1.0     0.738939     0.351698     0.365126  Biso 1.000000     C
    C   1.0     0.738907     0.851503     0.365084  Biso 1.000000     C
    C   1.0     0.186679     0.388599     0.306486  Biso 1.000000     C
    C   1.0     0.186700     0.888450     0.306430  Biso 1.000000     C
    C   1.0     0.686670     0.388610     0.306487  Biso 1.000000     C
    C   1.0     0.686690     0.888451     0.306452  Biso 1.000000     C
    C   1.0     0.231788     0.391268     0.225679  Biso 1.000000     C
    C   1.0     0.231852     0.891149     0.225627  Biso 1.000000     C
    C   1.0     0.731807     0.391292     0.225688  Biso 1.000000     C
    C   1.0     0.731804     0.891124     0.225641  Biso 1.000000     C
    C   1.0     0.330080     0.356430     0.208879  Biso 1.000000     C
    C   1.0     0.330054     0.856231     0.208827  Biso 1.000000     C
    C   1.0     0.830065     0.356430     0.208875  Biso 1.000000     C
    C   1.0     0.830019     0.856220     0.208837  Biso 1.000000     C
    C   1.0     0.376546     0.320160     0.271026  Biso 1.000000     C
    C   1.0     0.376423     0.819918     0.270975  Biso 1.000000     C
    C   1.0     0.876514     0.320153     0.271021  Biso 1.000000     C
    C   1.0     0.876411     0.819920     0.270989  Biso 1.000000     C
    C   1.0     0.172150     0.425957     0.161880  Biso 1.000000     C
    C   1.0     0.172144     0.925808     0.161811  Biso 1.000000     C
    C   1.0     0.672151     0.425966     0.161881  Biso 1.000000     C
    C   1.0     0.672113     0.925783     0.161822  Biso 1.000000     C
    C   1.0     0.260838     0.398210     0.865216  Biso 1.000000     C
    C   1.0     0.260861     0.898332     0.865060  Biso 1.000000     C
    C   1.0     0.760806     0.398209     0.865221  Biso 1.000000     C
    C   1.0     0.760871     0.898335     0.865053  Biso 1.000000     C
    C   1.0     0.313093     0.361301     0.806581  Biso 1.000000     C
    C   1.0     0.313036     0.861363     0.806438  Biso 1.000000     C
    C   1.0     0.813077     0.361309     0.806583  Biso 1.000000     C
    C   1.0     0.813033     0.861359     0.806432  Biso 1.000000     C
    C   1.0     0.267986     0.358650     0.725764  Biso 1.000000     C
    C   1.0     0.267928     0.858689     0.725621  Biso 1.000000     C
    C   1.0     0.767995     0.358677     0.725757  Biso 1.000000     C
    C   1.0     0.767887     0.858661     0.725625  Biso 1.000000     C
    C   1.0     0.169668     0.393474     0.708958  Biso 1.000000     C
    C   1.0     0.169633     0.893544     0.708833  Biso 1.000000     C
    C   1.0     0.669643     0.393480     0.708957  Biso 1.000000     C
    C   1.0     0.669635     0.893542     0.708834  Biso 1.000000     C
    C   1.0     0.123211     0.429740     0.771102  Biso 1.000000     C
    C   1.0     0.123282     0.929875     0.770963  Biso 1.000000     C
    C   1.0     0.623178     0.429736     0.771102  Biso 1.000000     C
    C   1.0     0.623294     0.929880     0.770968  Biso 1.000000     C
    C   1.0     0.327722     0.324027     0.661959  Biso 1.000000     C
    C   1.0     0.327563     0.823965     0.661842  Biso 1.000000     C
    C   1.0     0.827697     0.324029     0.661966  Biso 1.000000     C
    C   1.0     0.827551     0.823961     0.661825  Biso 1.000000     C
    N   1.0     0.167829     0.183374     0.651586  Biso 1.000000     N
    N   1.0     0.167808     0.683170     0.651565  Biso 1.000000     N
    N   1.0     0.667876     0.183405     0.651600  Biso 1.000000     N
    N   1.0     0.667767     0.683169     0.651565  Biso 1.000000     N
    N   1.0     0.282458     0.054243     0.911865  Biso 1.000000     N
    N   1.0     0.282428     0.554136     0.911806  Biso 1.000000     N
    N   1.0     0.782443     0.054255     0.911851  Biso 1.000000     N
    N   1.0     0.782401     0.554134     0.911806  Biso 1.000000     N
    N   1.0     0.373465     0.029946     0.952485  Biso 1.000000     N
    N   1.0     0.373410     0.529831     0.952417  Biso 1.000000     N
    N   1.0     0.873405     0.029910     0.952456  Biso 1.000000     N
    N   1.0     0.873390     0.529813     0.952402  Biso 1.000000     N
    N   1.0     0.468938     0.034755     0.903672  Biso 1.000000     N
    N   1.0     0.468934     0.534626     0.903639  Biso 1.000000     N
    N   1.0     0.968923     0.034775     0.903675  Biso 1.000000     N
    N   1.0     0.968907     0.534618     0.903629  Biso 1.000000     N
    N   1.0     0.441880     0.061614     0.831696  Biso 1.000000     N
    N   1.0     0.441874     0.561437     0.831637  Biso 1.000000     N
    N   1.0     0.941886     0.061654     0.831711  Biso 1.000000     N
    N   1.0     0.941844     0.561437     0.831626  Biso 1.000000     N
    N   1.0     0.332262     0.066710     0.151632  Biso 1.000000     N
    N   1.0     0.332373     0.566907     0.151476  Biso 1.000000     N
    N   1.0     0.832247     0.066723     0.151618  Biso 1.000000     N
    N   1.0     0.832269     0.566839     0.151513  Biso 1.000000     N
    N   1.0     0.217708     0.195889     0.411889  Biso 1.000000     N
    N   1.0     0.217485     0.695657     0.411860  Biso 1.000000     N
    N   1.0     0.717690     0.195884     0.411892  Biso 1.000000     N
    N   1.0     0.717437     0.695647     0.411869  Biso 1.000000     N
    N   1.0     0.126711     0.220203     0.452474  Biso 1.000000     N
    N   1.0     0.126493     0.720003     0.452419  Biso 1.000000     N
    N   1.0     0.626711     0.220231     0.452460  Biso 1.000000     N
    N   1.0     0.626417     0.719935     0.452447  Biso 1.000000     N
    N   1.0     0.031274     0.215464     0.403600  Biso 1.000000     N
    N   1.0     0.031077     0.715284     0.403531  Biso 1.000000     N
    N   1.0     0.531251     0.215454     0.403604  Biso 1.000000     N
    N   1.0     0.531034     0.715268     0.403520  Biso 1.000000     N
    N   1.0     0.058363     0.188633     0.331608  Biso 1.000000     N
    N   1.0     0.058234     0.688575     0.331484  Biso 1.000000     N
    N   1.0     0.558342     0.188626     0.331615  Biso 1.000000     N
    N   1.0     0.558218     0.688585     0.331458  Biso 1.000000     N
    N   1.0     0.332208     0.316831     0.348454  Biso 1.000000     N
    N   1.0     0.332065     0.816564     0.348393  Biso 1.000000     N
    N   1.0     0.832171     0.316820     0.348446  Biso 1.000000     N
    N   1.0     0.832062     0.816575     0.348411  Biso 1.000000     N
    N   1.0     0.217564     0.445865     0.088224  Biso 1.000000     N
    N   1.0     0.217491     0.945718     0.088118  Biso 1.000000     N
    N   1.0     0.717523     0.445820     0.088191  Biso 1.000000     N
    N   1.0     0.717496     0.945737     0.088164  Biso 1.000000     N
    N   1.0     0.126604     0.470210     0.047625  Biso 1.000000     N
    N   1.0     0.126497     0.970048     0.047530  Biso 1.000000     N
    N   1.0     0.626531     0.470102     0.047558  Biso 1.000000     N
    N   1.0     0.626528     0.970098     0.047576  Biso 1.000000     N
    N   1.0     0.031033     0.465322     0.096347  Biso 1.000000     N
    N   1.0     0.031009     0.965218     0.096330  Biso 1.000000     N
    N   1.0     0.531052     0.465374     0.096375  Biso 1.000000     N
    N   1.0     0.530999     0.965194     0.096329  Biso 1.000000     N
    N   1.0     0.058089     0.438518     0.168359  Biso 1.000000     N
    N   1.0     0.058085     0.938369     0.168309  Biso 1.000000     N
    N   1.0     0.558105     0.438559     0.168379  Biso 1.000000     N
    N   1.0     0.558044     0.938318     0.168296  Biso 1.000000     N
    N   1.0     0.167604     0.433091     0.848525  Biso 1.000000     N
    N   1.0     0.167692     0.933263     0.848383  Biso 1.000000     N
    N   1.0     0.667557     0.433083     0.848533  Biso 1.000000     N
    N   1.0     0.667709     0.933272     0.848381  Biso 1.000000     N
    N   1.0     0.282486     0.304284     0.588167  Biso 1.000000     N
    N   1.0     0.282281     0.804141     0.588098  Biso 1.000000     N
    N   1.0     0.782473     0.304290     0.588167  Biso 1.000000     N
    N   1.0     0.782241     0.804125     0.588091  Biso 1.000000     N
    N   1.0     0.373508     0.280010     0.547574  Biso 1.000000     N
    N   1.0     0.373250     0.779774     0.547543  Biso 1.000000     N
    N   1.0     0.873506     0.280027     0.547566  Biso 1.000000     N
    N   1.0     0.873215     0.779775     0.547521  Biso 1.000000     N
    N   1.0     0.468915     0.284727     0.596474  Biso 1.000000     N
    N   1.0     0.468686     0.784514     0.596415  Biso 1.000000     N
    N   1.0     0.968889     0.284717     0.596488  Biso 1.000000     N
    N   1.0     0.968656     0.784503     0.596394  Biso 1.000000     N
    N   1.0     0.441742     0.311421     0.668532  Biso 1.000000     N
    N   1.0     0.441582     0.811317     0.668423  Biso 1.000000     N
    N   1.0     0.941712     0.311401     0.668550  Biso 1.000000     N
    N   1.0     0.941566     0.811318     0.668393  Biso 1.000000     N
   Cu   1.0     0.124218     0.252411     0.569492  Biso 1.000000    Cu
   Cu   1.0     0.123913     0.751977     0.569507  Biso 1.000000    Cu
   Cu   1.0     0.624163     0.252404     0.569499  Biso 1.000000    Cu
   Cu   1.0     0.623879     0.751981     0.569500  Biso 1.000000    Cu
   Cu   1.0     0.375971     0.498141     0.069511  Biso 1.000000    Cu
   Cu   1.0     0.375711     0.997667     0.069533  Biso 1.000000    Cu
   Cu   1.0     0.875986     0.498195     0.069519  Biso 1.000000    Cu
   Cu   1.0     0.875718     0.997698     0.069499  Biso 1.000000    Cu
   Cu   1.0     0.376047     0.248013     0.430525  Biso 1.000000    Cu
   Cu   1.0     0.375759     0.747588     0.430509  Biso 1.000000    Cu
   Cu   1.0     0.876023     0.248013     0.430513  Biso 1.000000    Cu
   Cu   1.0     0.875729     0.747555     0.430492  Biso 1.000000    Cu
   Cu   1.0     0.124245     0.002327     0.930486  Biso 1.000000    Cu
   Cu   1.0     0.123998     0.501786     0.930503  Biso 1.000000    Cu
   Cu   1.0     0.624185     0.002283     0.930527  Biso 1.000000    Cu
   Cu   1.0     0.624052     0.501841     0.930464  Biso 1.000000    Cu
