#======================================================================

# CRYSTAL DATA

#----------------------------------------------------------------------

data_VESTA_phase_1


_pd_phase_name                         MOF
_cell_length_a                         13.75700
_cell_length_b                         14.99900
_cell_length_c                         19.75700
_cell_angle_alpha                      89.99400
_cell_angle_beta                       108.58300
_cell_angle_gamma                      90.02500
_symmetry_space_group_name_H-M         "P 1"
_symmetry_Int_Tables_number            1

loop_
_symmetry_equiv_pos_as_xyz
   "x, y, z"

loop_
   _atom_site_label
   _atom_site_occupancy
   _atom_site_fract_x
   _atom_site_fract_y
   _atom_site_fract_z
   _atom_site_adp_type
   _atom_site_B_iso_or_equiv
   _atom_site_type_symbol
    H   1.0     0.656530     0.538590     0.652069  Biso 1.000000     H
    H   1.0     0.966603     0.612645     0.027583  Biso 1.000000     H
    H   1.0     0.966603     0.887309     0.527625  Biso 1.000000     H
    H   1.0     0.898079     0.616657     0.783571  Biso 1.000000     H
    H   1.0     0.522267     0.445493     0.767196  Biso 1.000000     H
    H   1.0     0.268836     0.284973     0.165605  Biso 1.000000     H
    H   1.0     0.815130     0.389249     0.739331  Biso 1.000000     H
    H   1.0     0.738709     0.255659     0.665774  Biso 1.000000     H
    H   1.0     0.573398     0.447706     0.928288  Biso 1.000000     H
    H   1.0     0.101442     0.383328     0.216256  Biso 1.000000     H
    H   1.0     0.552426     0.813639     0.808408  Biso 1.000000     H
    H   1.0     0.573609     0.052298     0.428355  Biso 1.000000     H
    H   1.0     0.269077     0.214963     0.665637  Biso 1.000000     H
    H   1.0     0.477524     0.945597     0.732716  Biso 1.000000     H
    H   1.0     0.814955     0.110997     0.239319  Biso 1.000000     H
    H   1.0     0.897897     0.883608     0.283285  Biso 1.000000     H
    H   1.0     0.912785     0.096886     0.658865  Biso 1.000000     H
    H   1.0     0.343271     0.038569     0.847876  Biso 1.000000     H
    H   1.0     0.730660     0.785026     0.334243  Biso 1.000000     H
    H   1.0     0.086852     0.903069     0.340991  Biso 1.000000     H
    H   1.0     0.087018     0.597172     0.841315  Biso 1.000000     H
    H   1.0     0.425835     0.947744     0.571521  Biso 1.000000     H
    H   1.0     0.261065     0.755469     0.834059  Biso 1.000000     H
    H   1.0     0.378063     0.170872     0.928831  Biso 1.000000     H
    H   1.0     0.260981     0.744356     0.334119  Biso 1.000000     H
    H   1.0     0.697058     0.845959     0.751821  Biso 1.000000     H
    H   1.0     0.378174     0.329112     0.428804  Biso 1.000000     H
    H   1.0     0.155515     0.907006     0.582504  Biso 1.000000     H
    H   1.0     0.738459     0.244532     0.165769  Biso 1.000000     H
    H   1.0     0.656462     0.961399     0.151992  Biso 1.000000     H
    H   1.0     0.912524     0.402819     0.158552  Biso 1.000000     H
    H   1.0     0.425885     0.552165     0.071610  Biso 1.000000     H
    H   1.0     0.155491     0.592964     0.082504  Biso 1.000000     H
    H   1.0     0.032873     0.387399     0.972302  Biso 1.000000     H
    H   1.0     0.447360     0.313522     0.691467  Biso 1.000000     H
    H   1.0     0.552286     0.686408     0.308383  Biso 1.000000     H
    H   1.0     0.101726     0.116385     0.716521  Biso 1.000000     H
    H   1.0     0.343167     0.461397     0.347835  Biso 1.000000     H
    H   1.0     0.033002     0.112622     0.472237  Biso 1.000000     H
    H   1.0     0.844082     0.092952     0.417324  Biso 1.000000     H
    H   1.0     0.184640     0.889042     0.760522  Biso 1.000000     H
    H   1.0     0.477324     0.554442     0.232669  Biso 1.000000     H
    H   1.0     0.621602     0.670869     0.571094  Biso 1.000000     H
    H   1.0     0.302714     0.345916     0.748088  Biso 1.000000     H
    H   1.0     0.697050     0.654061     0.251802  Biso 1.000000     H
    H   1.0     0.522112     0.054346     0.267156  Biso 1.000000     H
    H   1.0     0.621667     0.829088     0.071045  Biso 1.000000     H
    H   1.0     0.184500     0.610769     0.260566  Biso 1.000000     H
    H   1.0     0.302658     0.154037     0.248068  Biso 1.000000     H
    H   1.0     0.843974     0.407084     0.917357  Biso 1.000000     H
    H   1.0     0.730810     0.715023     0.834290  Biso 1.000000     H
    H   1.0     0.447137     0.186273     0.191446  Biso 1.000000     H
    C   1.0     0.967121     0.055508     0.643263  Biso 1.000000     C
    C   1.0     0.588182     0.222444     0.173798  Biso 1.000000     C
    C   1.0     0.569250     0.095035     0.244061  Biso 1.000000     C
    C   1.0     0.927149     0.566412     0.824924  Biso 1.000000     C
    C   1.0     0.457841     0.697762     0.870885  Biso 1.000000     C
    C   1.0     0.365396     0.344463     0.893104  Biso 1.000000     C
    C   1.0     0.527507     0.331174     0.702219  Biso 1.000000     C
    C   1.0     0.688474     0.778162     0.730969  Biso 1.000000     C
    C   1.0     0.291583     0.295016     0.223191  Biso 1.000000     C
    C   1.0     0.928904    -0.009030     0.590209  Biso 1.000000     C
    C   1.0     0.673006     0.073429     0.257115  Biso 1.000000     C
    C   1.0     0.656858     0.734165     0.156716  Biso 1.000000     C
    C   1.0     0.634158     0.655510     0.106773  Biso 1.000000     C
    C   1.0     0.688444     0.721850     0.230935  Biso 1.000000     C
    C   1.0     0.307454     0.701473     0.312215  Biso 1.000000     C
    C   1.0     0.673165     0.426598     0.757151  Biso 1.000000     C
    C   1.0     0.342844     0.265803     0.843164  Biso 1.000000     C
    C   1.0     0.814897     0.980811     0.555565  Biso 1.000000     C
    C   1.0     0.691983     0.201582     0.187652  Biso 1.000000     C
    C   1.0     0.353653     0.179201     0.871076  Biso 1.000000     C
    C   1.0     0.966918     0.444262     0.143028  Biso 1.000000     C
    C   1.0     0.072590     0.066186     0.675128  Biso 1.000000     C
    C   1.0     0.430185     0.595081     0.255767  Biso 1.000000     C
    C   1.0     0.311220     0.221832     0.268923  Biso 1.000000     C
    C   1.0     0.927035     0.933793     0.324690  Biso 1.000000     C
    C   1.0     0.353671     0.320769     0.371048  Biso 1.000000     C
    C   1.0     0.696775     0.618041     0.748606  Biso 1.000000     C
    C   1.0     0.646056     0.679215     0.628849  Biso 1.000000     C
    C   1.0     0.814789     0.519096     0.055456  Biso 1.000000     C
    C   1.0     0.184612     0.480895     0.944445  Biso 1.000000     C
    C   1.0     0.472132     0.668780     0.297638  Biso 1.000000     C
    C   1.0     0.858618     0.512889     0.846456  Biso 1.000000     C
    C   1.0     0.072372     0.433590     0.174915  Biso 1.000000     C
    C   1.0     0.928780     0.508898     0.090058  Biso 1.000000     C
    C   1.0     0.326608     0.926549     0.742739  Biso 1.000000     C
    C   1.0     0.541897     0.197764     0.628963  Biso 1.000000     C
    C   1.0     0.665851     0.605698     0.674344  Biso 1.000000     C
    C   1.0     0.541673     0.302206     0.128951  Biso 1.000000     C
    C   1.0     0.184646     0.019139     0.444325  Biso 1.000000     C
    C   1.0     0.002132     0.436978     0.930738  Biso 1.000000     C
    C   1.0     0.342876     0.234165     0.343140  Biso 1.000000     C
    C   1.0     0.896890     0.448003     0.899713  Biso 1.000000     C
    C   1.0     0.997395     0.936860     0.569215  Biso 1.000000     C
    C   1.0     0.365537     0.155514     0.393082  Biso 1.000000     C
    C   1.0     0.333922     0.105671     0.825590  Biso 1.000000     C
    C   1.0     0.858570     0.987236     0.346308  Biso 1.000000     C
    C   1.0     0.527295     0.168716     0.202193  Biso 1.000000     C
    C   1.0     0.102668     0.947890     0.600209  Biso 1.000000     C
    C   1.0     0.734367     0.373066     0.728754  Biso 1.000000     C
    C   1.0     0.326433     0.573390     0.242725  Biso 1.000000     C
    C   1.0     0.302815     0.381955     0.251290  Biso 1.000000     C
    C   1.0     0.634101     0.844459     0.606799  Biso 1.000000     C
    C   1.0     0.734180     0.127071     0.228734  Biso 1.000000     C
    C   1.0     0.656829     0.765820     0.656752  Biso 1.000000     C
    C   1.0     0.070677     0.491131     0.909809  Biso 1.000000     C
    C   1.0     0.411349     0.777510     0.826031  Biso 1.000000     C
    C   1.0     0.032596     0.555748     0.856826  Biso 1.000000     C
    C   1.0     0.102594     0.552022     0.100149  Biso 1.000000     C
    C   1.0     0.692206     0.298527     0.687664  Biso 1.000000     C
    C   1.0     0.002200     0.063089     0.430635  Biso 1.000000     C
    C   1.0     0.411242     0.722434     0.326045  Biso 1.000000     C
    C   1.0     0.997336     0.563047     0.069134  Biso 1.000000     C
    C   1.0     0.457781     0.802194     0.370900  Biso 1.000000     C
    C   1.0     0.307560     0.798402     0.812180  Biso 1.000000     C
    C   1.0     0.141062     0.012747     0.653511  Biso 1.000000     C
    C   1.0     0.646072     0.820764     0.128801  Biso 1.000000     C
    C   1.0     0.311294     0.278124     0.768948  Biso 1.000000     C
    C   1.0     0.430359     0.904918     0.755795  Biso 1.000000     C
    C   1.0     0.707952     0.795047     0.276655  Biso 1.000000     C
    C   1.0     0.303015     0.117997     0.751326  Biso 1.000000     C
    C   1.0     0.896938     0.052078     0.399622  Biso 1.000000     C
    C   1.0     0.665792     0.894299     0.174281  Biso 1.000000     C
    C   1.0     0.588416     0.277541     0.673816  Biso 1.000000     C
    C   1.0     0.333821     0.394291     0.325556  Biso 1.000000     C
    C   1.0     0.472273     0.831220     0.797652  Biso 1.000000     C
    C   1.0     0.265261     0.626940     0.271131  Biso 1.000000     C
    C   1.0     0.265405     0.872929     0.771109  Biso 1.000000     C
    C   1.0     0.569422     0.404876     0.744097  Biso 1.000000     C
    C   1.0     0.708057     0.704982     0.776704  Biso 1.000000     C
    C   1.0     0.070682     0.000000     0.409644  Biso 1.000000     C
    C   1.0     0.140911     0.487126     0.153397  Biso 1.000000     C
    C   1.0     0.696659     0.881980     0.248545  Biso 1.000000     C
    C   1.0     0.032500     0.944445     0.356577  Biso 1.000000     C
    C   1.0     0.291765     0.204933     0.723222  Biso 1.000000     C
    O   1.0     0.640925     0.921815     0.635492  Biso 1.000000     O
    O   1.0     0.329298     0.035108     0.633217  Biso 1.000000     O
    O   1.0     0.444446     0.308695     0.111174  Biso 1.000000     O
    O   1.0     0.358760     0.078163     0.364380  Biso 1.000000     O
    O   1.0     0.608860     0.671592     0.040453  Biso 1.000000     O
    O   1.0     0.555075     0.691309     0.888671  Biso 1.000000     O
    O   1.0     0.241902     0.539030     0.929932  Biso 1.000000     O
    O   1.0     0.443874     0.992063     0.541489  Biso 1.000000     O
    O   1.0     0.641009     0.578152     0.135469  Biso 1.000000     O
    O   1.0     0.670430     0.535080     0.866711  Biso 1.000000     O
    O   1.0     0.757629     0.460890     0.070040  Biso 1.000000     O
    O   1.0     0.213348     0.086216     0.486194  Biso 1.000000     O
    O   1.0     0.670474     0.964871     0.366717  Biso 1.000000     O
    O   1.0     0.443854     0.507864     0.041550  Biso 1.000000     O
    O   1.0     0.757798     0.039031     0.570169  Biso 1.000000     O
    O   1.0     0.390704     0.171578     0.459398  Biso 1.000000     O
    O   1.0     0.555432     0.492003     0.958353  Biso 1.000000     O
    O   1.0     0.241844     0.960965     0.429784  Biso 1.000000     O
    O   1.0     0.786053     0.913757     0.513700  Biso 1.000000     O
    O   1.0     0.395767     0.855111     0.386446  Biso 1.000000     O
    O   1.0     0.390438     0.328394     0.959414  Biso 1.000000     O
    O   1.0     0.395797     0.644850     0.886459  Biso 1.000000     O
    O   1.0     0.329244     0.464884     0.133244  Biso 1.000000     O
    O   1.0     0.444658     0.191284     0.611135  Biso 1.000000     O
    O   1.0     0.555024     0.808645     0.388717  Biso 1.000000     O
    O   1.0     0.603792     0.355079     0.113407  Biso 1.000000     O
    O   1.0     0.608821     0.828374     0.540481  Biso 1.000000     O
    O   1.0     0.786008     0.586210     0.013665  Biso 1.000000     O
    O   1.0     0.555573     0.007986     0.458395  Biso 1.000000     O
    O   1.0     0.603983     0.144873     0.613462  Biso 1.000000     O
    O   1.0     0.358662     0.421816     0.864407  Biso 1.000000     O
    O   1.0     0.213207     0.413752     0.986239  Biso 1.000000     O
    P   1.0     0.278472     0.024946     0.690083  Biso 1.000000     P
    P   1.0     0.721241     0.524990     0.809839  Biso 1.000000     P
    P   1.0     0.278308     0.475003     0.190051  Biso 1.000000     P
    P   1.0     0.721170     0.975038     0.309784  Biso 1.000000     P
   Zn   1.0     0.639002     0.899172     0.455189  Biso 1.000000    Zn
   Zn   1.0     0.638960     0.600794     0.955152  Biso 1.000000    Zn
   Zn   1.0     0.396513     0.526550     0.932948  Biso 1.000000    Zn
   Zn   1.0     0.360245     0.100840     0.544668  Biso 1.000000    Zn
   Zn   1.0     0.603060     0.026584     0.567008  Biso 1.000000    Zn
   Zn   1.0     0.360042     0.399123     0.044700  Biso 1.000000    Zn
   Zn   1.0     0.396545     0.973416     0.432912  Biso 1.000000    Zn
   Zn   1.0     0.602964     0.473387     0.066990  Biso 1.000000    Zn
