#======================================================================

# CRYSTAL DATA

#----------------------------------------------------------------------

data_VESTA_phase_1


_pd_phase_name                         MOF
_cell_length_a                         12.94900
_cell_length_b                         18.04500
_cell_length_c                         17.47700
_cell_angle_alpha                      76.43800
_cell_angle_beta                       73.59800
_cell_angle_gamma                      65.40300
_symmetry_space_group_name_H-M         "P 1"
_symmetry_Int_Tables_number            1

loop_
_symmetry_equiv_pos_as_xyz
   "x, y, z"

loop_
   _atom_site_label
   _atom_site_occupancy
   _atom_site_fract_x
   _atom_site_fract_y
   _atom_site_fract_z
   _atom_site_adp_type
   _atom_site_B_iso_or_equiv
   _atom_site_type_symbol
    H   1.0     0.636889     0.295218     0.643948  Biso 1.000000     H
    H   1.0     0.838140     0.940360     0.032984  Biso 1.000000     H
    H   1.0     0.311052     0.917542     0.963049  Biso 1.000000     H
    H   1.0     0.997093     0.161917     0.754352  Biso 1.000000     H
    H   1.0     0.634482     0.294370     0.786769  Biso 1.000000     H
    H   1.0     0.661571     0.738169     0.016120  Biso 1.000000     H
    H   1.0     0.960923     0.128807     0.011600  Biso 1.000000     H
    H   1.0     0.340784     0.629501     0.623669  Biso 1.000000     H
    H   1.0     0.654687     0.369584     0.519564  Biso 1.000000     H
    H   1.0     0.930741     0.584396     0.697018  Biso 1.000000     H
    H   1.0     0.018194     0.021338     0.792017  Biso 1.000000     H
    H   1.0    -0.000197     0.571332     0.000000  Biso 1.000000     H
    H   1.0     0.973613     0.328586     0.248941  Biso 1.000000     H
    H   1.0     0.217321     0.673835     0.752311  Biso 1.000000     H
    H   1.0     0.814426     0.270278     0.016484  Biso 1.000000     H
    H   1.0     0.850600     0.304847     0.760160  Biso 1.000000     H
    H   1.0     0.026333     0.671424     0.751071  Biso 1.000000     H
    H   1.0     0.338381     0.261823     0.983883  Biso 1.000000     H
    H   1.0     0.765278     0.650277     0.059163  Biso 1.000000     H
    H   1.0     0.659165     0.370489     0.376358  Biso 1.000000     H
    H   1.0     0.292303     0.427421     0.432371  Biso 1.000000     H
    H   1.0     0.699731     0.508783     0.192013  Biso 1.000000     H
    H   1.0     0.804953     0.426441     0.007955  Biso 1.000000     H
    H   1.0     0.185507     0.729711     0.983524  Biso 1.000000     H
    H   1.0     0.713026     0.577203     0.423289  Biso 1.000000     H
    H   1.0     0.688885     0.082455     0.036966  Biso 1.000000     H
    H   1.0     0.300181     0.491219     0.808003  Biso 1.000000     H
    H   1.0     0.234668     0.349715     0.940846  Biso 1.000000     H
    H   1.0     0.002832     0.838068     0.245660  Biso 1.000000     H
    H   1.0     0.094656     0.505410     0.250961  Biso 1.000000     H
    H   1.0     0.149321     0.695135     0.239850  Biso 1.000000     H
    H   1.0     0.782621     0.326177     0.247706  Biso 1.000000     H
    H   1.0     0.039011     0.871184     0.988410  Biso 1.000000     H
    H   1.0     0.345237     0.630414     0.480467  Biso 1.000000     H
    H   1.0     0.981748     0.978643     0.207995  Biso 1.000000     H
    H   1.0     0.000000     0.513611     0.761475  Biso 1.000000     H
    H   1.0     0.069212     0.415596     0.302991  Biso 1.000000     H
    H   1.0     0.905302     0.494580     0.749044  Biso 1.000000     H
    H   1.0     0.166854     0.878748     0.790029  Biso 1.000000     H
    H   1.0    -0.023586     0.486379     0.238531  Biso 1.000000     H
    H   1.0     0.298755     0.490382     0.666807  Biso 1.000000     H
    H   1.0     0.286900     0.422792     0.576715  Biso 1.000000     H
    H   1.0     0.363026     0.704780     0.356073  Biso 1.000000     H
    H   1.0     0.161788     0.059634     0.967029  Biso 1.000000     H
    H   1.0     0.365431     0.705632     0.213250  Biso 1.000000     H
    H   1.0     0.195004     0.573537     0.992053  Biso 1.000000     H
    H   1.0     0.707646     0.572569     0.567630  Biso 1.000000     H
    H   1.0     0.000000     0.428645    -0.002786  Biso 1.000000     H
    H   1.0     0.809393     0.728529     0.994904  Biso 1.000000     H
    H   1.0     0.701159     0.509615     0.333209  Biso 1.000000     H
    H   1.0     0.833097     0.121236     0.209985  Biso 1.000000     H
    H   1.0     0.190560     0.271460     0.005104  Biso 1.000000     H
    C   1.0     0.920693     0.949147     0.120275  Biso 1.000000     C
    C   1.0     0.222958     0.347057     0.066681  Biso 1.000000     C
    C   1.0     0.368729     0.412506     0.532848  Biso 1.000000     C
    C   1.0     0.855390     0.246797     0.959018  Biso 1.000000     C
    C   1.0     0.520792     0.599274     0.691306  Biso 1.000000     C
    C   1.0     0.575328     0.380332     0.501191  Biso 1.000000     C
    C   1.0     0.144543     0.753193     0.040991  Biso 1.000000     C
    C   1.0     0.938455     0.167378     0.956006  Biso 1.000000     C
    C   1.0     0.060446     0.648963     0.805929  Biso 1.000000     C
    C   1.0     0.751321     0.110343     0.124106  Biso 1.000000     C
    C   1.0     0.837476     0.979825     0.071908  Biso 1.000000     C
    C   1.0     0.562896     0.338763     0.679570  Biso 1.000000     C
    C   1.0     0.916923     0.000833     0.170948  Biso 1.000000     C
    C   1.0     0.371295     0.414381     0.452335  Biso 1.000000     C
    C   1.0     0.468492     0.393512     0.644378  Biso 1.000000     C
    C   1.0     0.883063     0.619551     0.878680  Biso 1.000000     C
    C   1.0     0.000000     0.379217     0.122817  Biso 1.000000     C
    C   1.0     0.529254     0.604699     0.440976  Biso 1.000000     C
    C   1.0     0.531423     0.606489     0.355640  Biso 1.000000     C
    C   1.0     0.753334     0.058881     0.074321  Biso 1.000000     C
    C   1.0     0.834031     0.348771     0.193940  Biso 1.000000     C
    C   1.0     0.066923     0.457254     0.245761  Biso 1.000000     C
    C   1.0     0.009425     0.864897     0.117471  Biso 1.000000     C
    C   1.0     0.467826     0.393638     0.806095  Biso 1.000000     C
    C   1.0     0.079244     0.050842     0.879736  Biso 1.000000     C
    C   1.0     0.476244     0.398557     0.395294  Biso 1.000000     C
    C   1.0     0.165785     0.919434     0.827736  Biso 1.000000     C
    C   1.0     0.737108     0.383489     0.891417  Biso 1.000000     C
    C   1.0     0.248624     0.889647     0.875909  Biso 1.000000     C
    C   1.0     0.666475     0.197462     0.121610  Biso 1.000000     C
    C   1.0     0.246603     0.941112     0.925695  Biso 1.000000     C
    C   1.0     0.834159     0.080552     0.172280  Biso 1.000000     C
    C   1.0     0.116891     0.380440     0.121327  Biso 1.000000     C
    C   1.0     0.372667     0.446996     0.692695  Biso 1.000000     C
    C   1.0     0.162457     0.020167     0.928106  Biso 1.000000     C
    C   1.0     0.247850     0.305112     0.995718  Biso 1.000000     C
    C   1.0     0.479173     0.400720     0.308706  Biso 1.000000     C
    C   1.0     0.176733     0.702986     0.111450  Biso 1.000000     C
    C   1.0     0.631202     0.587488     0.467161  Biso 1.000000     C
    C   1.0     0.578095     0.381570     0.420856  Biso 1.000000     C
    C   1.0     0.262818     0.616498     0.108594  Biso 1.000000     C
    C   1.0     0.165915     0.651233     0.806075  Biso 1.000000     C
    C   1.0     0.421849     0.618421     0.579167  Biso 1.000000     C
    C   1.0     0.470669     0.395299     0.559041  Biso 1.000000     C
    C   1.0     0.955391     0.405236     0.054181  Biso 1.000000     C
    C   1.0     0.626752     0.552044     0.228129  Biso 1.000000     C
    C   1.0     0.628650     0.585610     0.547672  Biso 1.000000     C
    C   1.0     0.143972     0.412395     0.176273  Biso 1.000000     C
    C   1.0    -0.004567     0.620776     0.877191  Biso 1.000000     C
    C   1.0     0.124943     0.734631     0.185102  Biso 1.000000     C
    C   1.0     0.776996     0.652932     0.933328  Biso 1.000000     C
    C   1.0     0.823193     0.297001     0.888560  Biso 1.000000     C
    C   1.0     0.532087     0.606363     0.193923  Biso 1.000000     C
    C   1.0     0.752102     0.694878     0.004289  Biso 1.000000     C
    C   1.0     0.561997     0.337796     0.759552  Biso 1.000000     C
    C   1.0     0.847281     0.404049     0.059059  Biso 1.000000     C
    C   1.0     0.333474     0.802530     0.878405  Biso 1.000000     C
    C   1.0     0.531592     0.604977     0.108915  Biso 1.000000     C
    C   1.0     0.152674     0.595936     0.940951  Biso 1.000000     C
    C   1.0     0.627245     0.553002     0.307323  Biso 1.000000     C
    C   1.0     0.956449     0.185363     0.812107  Biso 1.000000     C
    C   1.0     0.061477     0.832612     0.044004  Biso 1.000000     C
    C   1.0     0.874983     0.265355     0.814908  Biso 1.000000     C
    C   1.0     0.437016     0.661235     0.320449  Biso 1.000000     C
    C   1.0     0.990503     0.135089     0.882540  Biso 1.000000     C
    C   1.0     0.523708     0.601431     0.604721  Biso 1.000000     C
    C   1.0     0.373160     0.447955     0.771888  Biso 1.000000     C
    C   1.0     0.437916     0.662203     0.240466  Biso 1.000000     C
    C   1.0     0.468332     0.395027     0.891099  Biso 1.000000     C
    C   1.0     0.083018     0.999152     0.829065  Biso 1.000000     C
    C   1.0     0.939501     0.351041     0.194082  Biso 1.000000     C
    C   1.0     0.043479     0.814622     0.187904  Biso 1.000000     C
    C   1.0     0.855983     0.587591     0.823737  Biso 1.000000     C
    C   1.0     0.424602     0.619662     0.498834  Biso 1.000000     C
    C   1.0     0.044564     0.594748     0.945826  Biso 1.000000     C
    C   1.0     0.933032     0.542735     0.754247  Biso 1.000000     C
    N   1.0     0.212950     0.624369     0.872261  Biso 1.000000     N
    N   1.0     0.258065     0.399140     0.155096  Biso 1.000000     N
    N   1.0     0.306836     0.357449     0.089059  Biso 1.000000     N
    N   1.0     0.786999     0.375627     0.127752  Biso 1.000000     N
    N   1.0     0.741892     0.600841     0.844917  Biso 1.000000     N
    N   1.0     0.693120     0.642533     0.910953  Biso 1.000000     N
    O   1.0     0.579859     0.537161     0.080230  Biso 1.000000     O
    O   1.0     0.314339     0.753504     0.847309  Biso 1.000000     O
    O   1.0     0.422431     0.615445     0.739846  Biso 1.000000     O
    O   1.0     0.582911     0.215846     0.086594  Biso 1.000000     O
    O   1.0     0.685608     0.246486     0.152709  Biso 1.000000     O
    O   1.0     0.617824     0.581200     0.710141  Biso 1.000000     O
    O   1.0     0.577539     0.384547     0.260170  Biso 1.000000     O
    O   1.0     0.481724     0.674802     0.069140  Biso 1.000000     O
    O   1.0     0.727168     0.428793     0.822946  Biso 1.000000     O
    O   1.0     0.420063     0.462842     0.919783  Biso 1.000000     O
    O   1.0     0.417041     0.784147     0.913417  Biso 1.000000     O
    O   1.0     0.272727     0.571191     0.177066  Biso 1.000000     O
    O   1.0     0.518210     0.325203     0.930873  Biso 1.000000     O
    O   1.0     0.506249     0.586539     0.907480  Biso 1.000000     O
    O   1.0     0.382146     0.418795     0.289865  Biso 1.000000     O
    O   1.0     0.493707     0.413452     0.092534  Biso 1.000000     O
    O   1.0     0.318361     0.592159     0.040872  Biso 1.000000     O
    O   1.0     0.681587     0.407830     0.959141  Biso 1.000000     O
   Zn   1.0     0.627582     0.372649     0.140608  Biso 1.000000    Zn
   Zn   1.0     0.372371     0.627342     0.859409  Biso 1.000000    Zn
   Zn   1.0     0.354153     0.450819     0.178996  Biso 1.000000    Zn
   Zn   1.0     0.520708     0.673055     0.951118  Biso 1.000000    Zn
   Zn   1.0     0.479246     0.326939     0.048893  Biso 1.000000    Zn
   Zn   1.0     0.499980     0.500001     0.000002  Biso 1.000000    Zn
   Zn   1.0     0.645797     0.549168     0.821015  Biso 1.000000    Zn
