#======================================================================

# CRYSTAL DATA

#----------------------------------------------------------------------

data_VESTA_phase_1


_pd_phase_name                         MOF
_cell_length_a                         10.79800
_cell_length_b                         22.28200
_cell_length_c                         13.68100
_cell_angle_alpha                      90.88500
_cell_angle_beta                       94.25000
_cell_angle_gamma                      91.82500
_symmetry_space_group_name_H-M         "P 1"
_symmetry_Int_Tables_number            1

loop_
_symmetry_equiv_pos_as_xyz
   "x, y, z"

loop_
   _atom_site_label
   _atom_site_occupancy
   _atom_site_fract_x
   _atom_site_fract_y
   _atom_site_fract_z
   _atom_site_adp_type
   _atom_site_B_iso_or_equiv
   _atom_site_type_symbol
    H   1.0     0.446134     0.481627     0.239209  Biso 1.000000     H
    H   1.0     0.457426     0.000000     0.239184  Biso 1.000000     H
    H   1.0     0.951565     0.481626     0.239210  Biso 1.000000     H
    H   1.0     0.962858     0.000000     0.239181  Biso 1.000000     H
    H   1.0     0.286582     0.356658     0.626581  Biso 1.000000     H
    H   1.0     0.297839     0.876493     0.626558  Biso 1.000000     H
    H   1.0     0.792027     0.356662     0.626590  Biso 1.000000     H
    H   1.0     0.803271     0.876491     0.626556  Biso 1.000000     H
    H   1.0     0.040684     0.046297     0.735585  Biso 1.000000     H
    H   1.0     0.052061     0.566127     0.735620  Biso 1.000000     H
    H   1.0     0.546114     0.046289     0.735598  Biso 1.000000     H
    H   1.0     0.557494     0.566129     0.735612  Biso 1.000000     H
    H   1.0     0.018232     0.080741     0.265773  Biso 1.000000     H
    H   1.0     0.029622     0.600572     0.265778  Biso 1.000000     H
    H   1.0     0.523679     0.080748     0.265786  Biso 1.000000     H
    H   1.0     0.535064     0.600577     0.265787  Biso 1.000000     H
    H   1.0     0.469680     0.401965     0.111238  Biso 1.000000     H
    H   1.0     0.480996     0.921789     0.111220  Biso 1.000000     H
    H   1.0     0.975111     0.401965     0.111239  Biso 1.000000     H
    H   1.0     0.986432     0.921792     0.111215  Biso 1.000000     H
    H   1.0     0.199901     0.171402     0.348310  Biso 1.000000     H
    H   1.0     0.211288     0.691227     0.348328  Biso 1.000000     H
    H   1.0     0.705344     0.171407     0.348320  Biso 1.000000     H
    H   1.0     0.716729     0.691230     0.348334  Biso 1.000000     H
    H   1.0     0.208126     0.083870     0.590828  Biso 1.000000     H
    H   1.0     0.219508     0.603691     0.590822  Biso 1.000000     H
    H   1.0     0.713545     0.083868     0.590834  Biso 1.000000     H
    H   1.0     0.724950     0.603692     0.590820  Biso 1.000000     H
    H   1.0     0.017541     0.125970     0.863637  Biso 1.000000     H
    H   1.0     0.028886     0.645801     0.863662  Biso 1.000000     H
    H   1.0     0.522968     0.125963     0.863649  Biso 1.000000     H
    H   1.0     0.534324     0.645805     0.863654  Biso 1.000000     H
    H   1.0     0.440423     0.367249     0.833039  Biso 1.000000     H
    H   1.0     0.451711     0.887068     0.833050  Biso 1.000000     H
    H   1.0     0.945868     0.367257     0.833053  Biso 1.000000     H
    H   1.0     0.957142     0.887067     0.833049  Biso 1.000000     H
    H   1.0     0.246414     0.250531     0.226606  Biso 1.000000     H
    H   1.0     0.257790     0.770358     0.226624  Biso 1.000000     H
    H   1.0     0.751861     0.250536     0.226618  Biso 1.000000     H
    H   1.0     0.763234     0.770362     0.226632  Biso 1.000000     H
    H   1.0     0.468147     0.447146     0.709327  Biso 1.000000     H
    H   1.0     0.479392     0.966964     0.709326  Biso 1.000000     H
    H   1.0     0.973595     0.447156     0.709342  Biso 1.000000     H
    H   1.0     0.984821     0.966962     0.709324  Biso 1.000000     H
    H   1.0     0.278502     0.444195     0.384408  Biso 1.000000     H
    H   1.0     0.289780     0.964028     0.384411  Biso 1.000000     H
    H   1.0     0.783936     0.444193     0.384410  Biso 1.000000     H
    H   1.0     0.795217     0.964028     0.384411  Biso 1.000000     H
    H   1.0     0.046356     0.160657     0.142169  Biso 1.000000     H
    H   1.0     0.057735     0.680490     0.142175  Biso 1.000000     H
    H   1.0     0.551801     0.160662     0.142179  Biso 1.000000     H
    H   1.0     0.563175     0.680494     0.142182  Biso 1.000000     H
    H   1.0     0.240470     0.277543     0.748412  Biso 1.000000     H
    H   1.0     0.251774     0.797380     0.748404  Biso 1.000000     H
    H   1.0     0.745921     0.277548     0.748422  Biso 1.000000     H
    H   1.0     0.757204     0.797378     0.748400  Biso 1.000000     H
    H   1.0     0.165408     0.161086     0.718525  Biso 1.000000     H
    H   1.0     0.176766     0.680908     0.718508  Biso 1.000000     H
    H   1.0     0.670832     0.161082     0.718533  Biso 1.000000     H
    H   1.0     0.682203     0.680909     0.718507  Biso 1.000000     H
    H   1.0     0.321638     0.367002     0.256802  Biso 1.000000     H
    H   1.0     0.332945     0.886837     0.256812  Biso 1.000000     H
    H   1.0     0.827071     0.367000     0.256804  Biso 1.000000     H
    H   1.0     0.838378     0.886835     0.256814  Biso 1.000000     H
   Li   1.0     0.413706     0.270360     0.062514  Biso 1.000000    Li
   Li   1.0     0.425040     0.790188     0.062519  Biso 1.000000    Li
   Li   1.0     0.919140     0.270360     0.062515  Biso 1.000000    Li
   Li   1.0     0.930474     0.790189     0.062520  Biso 1.000000    Li
   Li   1.0     0.082688     0.012473     0.427598  Biso 1.000000    Li
   Li   1.0     0.094084     0.532303     0.427606  Biso 1.000000    Li
   Li   1.0     0.588122     0.012474     0.427598  Biso 1.000000    Li
   Li   1.0     0.599518     0.532302     0.427607  Biso 1.000000    Li
   Li   1.0     0.403627     0.515501     0.547378  Biso 1.000000    Li
   Li   1.0     0.414866     0.000000     0.547364  Biso 1.000000    Li
   Li   1.0     0.909062     0.515501     0.547379  Biso 1.000000    Li
   Li   1.0     0.920299     0.000000     0.547363  Biso 1.000000    Li
   Li   1.0     0.073625     0.257630     0.912666  Biso 1.000000    Li
   Li   1.0     0.084955     0.777455     0.912665  Biso 1.000000    Li
   Li   1.0     0.579058     0.257629     0.912666  Biso 1.000000    Li
   Li   1.0     0.590388     0.777455     0.912665  Biso 1.000000    Li
    C   1.0     0.037606     0.411194     0.169087  Biso 1.000000     C
    C   1.0     0.048911     0.931018     0.169076  Biso 1.000000     C
    C   1.0     0.543040     0.411193     0.169088  Biso 1.000000     C
    C   1.0     0.554348     0.931019     0.169075  Biso 1.000000     C
    C   1.0     0.274403     0.093671     0.653537  Biso 1.000000     C
    C   1.0     0.285785     0.613498     0.653528  Biso 1.000000     C
    C   1.0     0.779827     0.093670     0.653539  Biso 1.000000     C
    C   1.0     0.791221     0.613498     0.653532  Biso 1.000000     C
    C   1.0     0.463036     0.072999     0.733855  Biso 1.000000     C
    C   1.0     0.474416     0.592839     0.733862  Biso 1.000000     C
    C   1.0     0.968471     0.073004     0.733847  Biso 1.000000     C
    C   1.0     0.979847     0.592835     0.733868  Biso 1.000000     C
    C   1.0     0.011241     0.365878     0.785026  Biso 1.000000     C
    C   1.0     0.022504     0.885692     0.785011  Biso 1.000000     C
    C   1.0     0.516667     0.365872     0.785015  Biso 1.000000     C
    C   1.0     0.527941     0.885692     0.785013  Biso 1.000000     C
    C   1.0     0.235298     0.391069     0.251551  Biso 1.000000     C
    C   1.0     0.246594     0.910896     0.251555  Biso 1.000000     C
    C   1.0     0.740730     0.391066     0.251553  Biso 1.000000     C
    C   1.0     0.752033     0.910898     0.251555  Biso 1.000000     C
    C   1.0     0.458791     0.117121     0.258207  Biso 1.000000     C
    C   1.0     0.470181     0.636952     0.258217  Biso 1.000000     C
    C   1.0     0.964221     0.117119     0.258203  Biso 1.000000     C
    C   1.0     0.975613     0.636951     0.258215  Biso 1.000000     C
    C   1.0     0.128741     0.408385     0.658691  Biso 1.000000     C
    C   1.0     0.139972     0.928202     0.658660  Biso 1.000000     C
    C   1.0     0.634170     0.408382     0.658684  Biso 1.000000     C
    C   1.0     0.645409     0.928203     0.658662  Biso 1.000000     C
    C   1.0     0.449495     0.116769     0.805872  Biso 1.000000     C
    C   1.0     0.460848     0.636602     0.805883  Biso 1.000000     C
    C   1.0     0.954931     0.116773     0.805865  Biso 1.000000     C
    C   1.0     0.966285     0.636602     0.805884  Biso 1.000000     C
    C   1.0     0.206631     0.359585     0.670230  Biso 1.000000     C
    C   1.0     0.217903     0.879418     0.670222  Biso 1.000000     C
    C   1.0     0.712076     0.359588     0.670238  Biso 1.000000     C
    C   1.0     0.723333     0.879416     0.670219  Biso 1.000000     C
    C   1.0     0.475484     0.162071     0.190129  Biso 1.000000     C
    C   1.0     0.486860     0.681900     0.190133  Biso 1.000000     C
    C   1.0     0.980911     0.162067     0.190122  Biso 1.000000     C
    C   1.0     0.992287     0.681897     0.190127  Biso 1.000000     C
    C   1.0     0.305407     0.211978     0.236739  Biso 1.000000     C
    C   1.0     0.316782     0.731805     0.236753  Biso 1.000000     C
    C   1.0     0.810846     0.211980     0.236745  Biso 1.000000     C
    C   1.0     0.822219     0.731805     0.236756  Biso 1.000000     C
    C   1.0     0.357673     0.119598     0.316310  Biso 1.000000     C
    C   1.0     0.369057     0.639423     0.316315  Biso 1.000000     C
    C   1.0     0.863103     0.119596     0.316306  Biso 1.000000     C
    C   1.0     0.874487     0.639420     0.316311  Biso 1.000000     C
    C   1.0     0.172149     0.332441     0.095906  Biso 1.000000     C
    C   1.0     0.183474     0.852271     0.095902  Biso 1.000000     C
    C   1.0     0.677582     0.332440     0.095906  Biso 1.000000     C
    C   1.0     0.688909     0.852267     0.095908  Biso 1.000000     C
    C   1.0     0.279897     0.168436     0.304720  Biso 1.000000     C
    C   1.0     0.291288     0.688264     0.304740  Biso 1.000000     C
    C   1.0     0.785340     0.168439     0.304728  Biso 1.000000     C
    C   1.0     0.796729     0.688266     0.304747  Biso 1.000000     C
    C   1.0     0.023835     0.454955     0.241067  Biso 1.000000     C
    C   1.0     0.035136     0.974786     0.241046  Biso 1.000000     C
    C   1.0     0.529272     0.454956     0.241067  Biso 1.000000     C
    C   1.0     0.540569     0.974783     0.241049  Biso 1.000000     C
    C   1.0     0.212365     0.434365     0.321624  Biso 1.000000     C
    C   1.0     0.223659     0.954198     0.321617  Biso 1.000000     C
    C   1.0     0.717800     0.434363     0.321625  Biso 1.000000     C
    C   1.0     0.729091     0.954196     0.321621  Biso 1.000000     C
    C   1.0     0.027692     0.410811     0.716870  Biso 1.000000     C
    C   1.0     0.038946     0.930630     0.716863  Biso 1.000000     C
    C   1.0     0.533122     0.410808     0.716864  Biso 1.000000     C
    C   1.0     0.544380     0.930630     0.716862  Biso 1.000000     C
    C   1.0     0.251700     0.136979     0.723655  Biso 1.000000     C
    C   1.0     0.263055     0.656800     0.723650  Biso 1.000000     C
    C   1.0     0.757126     0.136978     0.723659  Biso 1.000000     C
    C   1.0     0.768496     0.656803     0.723648  Biso 1.000000     C
    C   1.0     0.158281     0.456650     0.586460  Biso 1.000000     C
    C   1.0     0.169503     0.976470     0.586433  Biso 1.000000     C
    C   1.0     0.663712     0.456647     0.586456  Biso 1.000000     C
    C   1.0     0.674938     0.976471     0.586434  Biso 1.000000     C
    C   1.0     0.327999     0.071333     0.388496  Biso 1.000000     C
    C   1.0     0.339388     0.591158     0.388503  Biso 1.000000     C
    C   1.0     0.833431     0.071331     0.388494  Biso 1.000000     C
    C   1.0     0.844820     0.591156     0.388500  Biso 1.000000     C
    C   1.0     0.315221     0.195570     0.879262  Biso 1.000000     C
    C   1.0     0.326555     0.715403     0.879249  Biso 1.000000     C
    C   1.0     0.820654     0.195571     0.879261  Biso 1.000000     C
    C   1.0     0.831990     0.715400     0.879256  Biso 1.000000     C
    C   1.0     0.340351     0.149136     0.801909  Biso 1.000000     C
    C   1.0     0.351707     0.668972     0.801897  Biso 1.000000     C
    C   1.0     0.845784     0.149137     0.801907  Biso 1.000000     C
    C   1.0     0.857139     0.668968     0.801904  Biso 1.000000     C
    C   1.0     0.146817     0.378875     0.173197  Biso 1.000000     C
    C   1.0     0.158134     0.898710     0.173184  Biso 1.000000     C
    C   1.0     0.652251     0.378875     0.173196  Biso 1.000000     C
    C   1.0     0.663566     0.898705     0.173191  Biso 1.000000     C
    C   1.0     0.181364     0.316058     0.738295  Biso 1.000000     C
    C   1.0     0.192643     0.835885     0.738280  Biso 1.000000     C
    C   1.0     0.686805     0.316058     0.738298  Biso 1.000000     C
    C   1.0     0.698077     0.835884     0.738279  Biso 1.000000     C
    N   1.0     0.400895     0.209280     0.178739  Biso 1.000000     N
    N   1.0     0.412268     0.729110     0.178749  Biso 1.000000     N
    N   1.0     0.906330     0.209281     0.178740  Biso 1.000000     N
    N   1.0     0.917703     0.729110     0.178750  Biso 1.000000     N
    N   1.0     0.085963     0.318716     0.796388  Biso 1.000000     N
    N   1.0     0.097253     0.838541     0.796384  Biso 1.000000     N
    N   1.0     0.591399     0.318715     0.796387  Biso 1.000000     N
    N   1.0     0.602686     0.838540     0.796383  Biso 1.000000     N
    N   1.0     0.378039     0.061105     0.658162  Biso 1.000000     N
    N   1.0     0.389425     0.580935     0.658167  Biso 1.000000     N
    N   1.0     0.883467     0.061107     0.658159  Biso 1.000000     N
    N   1.0     0.894861     0.580935     0.658169  Biso 1.000000     N
    N   1.0     0.108659     0.466880     0.316866  Biso 1.000000     N
    N   1.0     0.119945     0.986709     0.316855  Biso 1.000000     N
    N   1.0     0.614094     0.466879     0.316867  Biso 1.000000     N
    N   1.0     0.625380     0.986709     0.316856  Biso 1.000000     N
    O   1.0     0.217969     0.068397     0.413842  Biso 1.000000     O
    O   1.0     0.229362     0.588226     0.413854  Biso 1.000000     O
    O   1.0     0.723403     0.068398     0.413843  Biso 1.000000     O
    O   1.0     0.734796     0.588227     0.413856  Biso 1.000000     O
    O   1.0     0.284545     0.325131     0.080727  Biso 1.000000     O
    O   1.0     0.295874     0.844957     0.080741  Biso 1.000000     O
    O   1.0     0.789979     0.325131     0.080728  Biso 1.000000     O
    O   1.0     0.801308     0.844958     0.080738  Biso 1.000000     O
    O   1.0     0.414959     0.037180     0.419107  Biso 1.000000     O
    O   1.0     0.426345     0.557005     0.419117  Biso 1.000000     O
    O   1.0     0.920393     0.037181     0.419108  Biso 1.000000     O
    O   1.0     0.931779     0.557005     0.419119  Biso 1.000000     O
    O   1.0     0.079035     0.303842     0.052343  Biso 1.000000     O
    O   1.0     0.090367     0.823664     0.052344  Biso 1.000000     O
    O   1.0     0.584468     0.303840     0.052344  Biso 1.000000     O
    O   1.0     0.595801     0.823666     0.052342  Biso 1.000000     O
    O   1.0     0.202862     0.202936     0.894496  Biso 1.000000     O
    O   1.0     0.214193     0.722760     0.894488  Biso 1.000000     O
    O   1.0     0.708295     0.202936     0.894498  Biso 1.000000     O
    O   1.0     0.719627     0.722762     0.894484  Biso 1.000000     O
    O   1.0     0.408420     0.224099     0.922831  Biso 1.000000     O
    O   1.0     0.419749     0.743926     0.922837  Biso 1.000000     O
    O   1.0     0.913854     0.224099     0.922832  Biso 1.000000     O
    O   1.0     0.925182     0.743928     0.922836  Biso 1.000000     O
    O   1.0     0.071340     0.490803     0.555844  Biso 1.000000     O
    O   1.0     0.082559     0.000000     0.555829  Biso 1.000000     O
    O   1.0     0.576773     0.490803     0.555845  Biso 1.000000     O
    O   1.0     0.587993     0.000000     0.555828  Biso 1.000000     O
    O   1.0     0.268266     0.459585     0.561047  Biso 1.000000     O
    O   1.0     0.279493     0.979418     0.561033  Biso 1.000000     O
    O   1.0     0.773700     0.459586     0.561049  Biso 1.000000     O
    O   1.0     0.784928     0.979418     0.561033  Biso 1.000000     O
