#======================================================================

# CRYSTAL DATA

#----------------------------------------------------------------------

data_VESTA_phase_1


_pd_phase_name                         MOF
_cell_length_a                         20.61800
_cell_length_b                         20.61700
_cell_length_c                         20.61700
_cell_angle_alpha                      91.91400
_cell_angle_beta                       91.90800
_cell_angle_gamma                      91.90500
_symmetry_space_group_name_H-M         "P 1"
_symmetry_Int_Tables_number            1

loop_
_symmetry_equiv_pos_as_xyz
   "x, y, z"

loop_
   _atom_site_label
   _atom_site_occupancy
   _atom_site_fract_x
   _atom_site_fract_y
   _atom_site_fract_z
   _atom_site_adp_type
   _atom_site_B_iso_or_equiv
   _atom_site_type_symbol
    H   1.0     0.890071     0.440114     0.061053  Biso 1.000000     H
    H   1.0     0.543173     0.947406     0.739004  Biso 1.000000     H
    H   1.0     0.588794     0.103271     0.048259  Biso 1.000000     H
    H   1.0     0.061079     0.890153     0.440110  Biso 1.000000     H
    H   1.0     0.067286     0.153965     0.548370  Biso 1.000000     H
    H   1.0     0.456731     0.261024     0.052654  Biso 1.000000     H
    H   1.0     0.654884     0.603584     0.112144  Biso 1.000000     H
    H   1.0     0.068986     0.887497     0.648267  Biso 1.000000     H
    H   1.0     0.103236     0.048246     0.588828  Biso 1.000000     H
    H   1.0     0.931016     0.351816     0.112507  Biso 1.000000     H
    H   1.0     0.005826     0.542806     0.308379  Biso 1.000000     H
    H   1.0     0.396378     0.345119     0.887905  Biso 1.000000     H
    H   1.0     0.734223     0.391496     0.186100  Biso 1.000000     H
    H   1.0     0.492090     0.387444     0.946221  Biso 1.000000     H
    H   1.0    -0.009497     0.801739     0.681193  Biso 1.000000     H
    H   1.0     0.801694     0.681183    -0.009491  Biso 1.000000     H
    H   1.0     0.668465     0.359786     0.843204  Biso 1.000000     H
    H   1.0     0.198307     0.000000     0.318871  Biso 1.000000     H
    H   1.0     0.112530     0.931090     0.351796  Biso 1.000000     H
    H   1.0     0.189616     0.740051     0.568246  Biso 1.000000     H
    H   1.0     0.498075     0.504214     0.923430  Biso 1.000000     H
    H   1.0     0.938945     0.559924     0.109905  Biso 1.000000     H
    H   1.0     0.843110     0.668526     0.359822  Biso 1.000000     H
    H   1.0     0.154022     0.548407     0.067329  Biso 1.000000     H
    H   1.0     0.522347     0.325317     0.178439  Biso 1.000000     H
    H   1.0     0.896715     0.411177     0.951734  Biso 1.000000     H
    H   1.0     0.345131     0.887884     0.396399  Biso 1.000000     H
    H   1.0     0.640189     0.331519     0.156852  Biso 1.000000     H
    H   1.0     0.308377     0.005769     0.542774  Biso 1.000000     H
    H   1.0     0.821495     0.674711     0.477661  Biso 1.000000     H
    H   1.0     0.681108    -0.009512     0.801759  Biso 1.000000     H
    H   1.0     0.359782     0.843037     0.668454  Biso 1.000000     H
    H   1.0     0.076589     0.495894     0.501967  Biso 1.000000     H
    H   1.0     0.411164     0.951743     0.896794  Biso 1.000000     H
    H   1.0     0.738962     0.543229     0.947445  Biso 1.000000     H
    H   1.0     0.052589     0.456812     0.261003  Biso 1.000000     H
    H   1.0     0.224848     0.157642     0.416959  Biso 1.000000     H
    H   1.0     0.674685     0.477622     0.821574  Biso 1.000000     H
    H   1.0     0.932644     0.451629     0.846008  Biso 1.000000     H
    H   1.0     0.923374     0.498090     0.504149  Biso 1.000000     H
    H   1.0     0.387375     0.946142     0.492134  Biso 1.000000     H
    H   1.0     0.691597     0.457244     0.994212  Biso 1.000000     H
    H   1.0     0.259935     0.810420     0.431800  Biso 1.000000     H
    H   1.0     0.156967     0.640212     0.331581  Biso 1.000000     H
    H   1.0     0.887474     0.648259     0.068974  Biso 1.000000     H
    H   1.0     0.477622     0.821446     0.674664  Biso 1.000000     H
    H   1.0     0.325329     0.178560     0.522418  Biso 1.000000     H
    H   1.0     0.504153     0.923394     0.498103  Biso 1.000000     H
    H   1.0     0.947443     0.739048     0.543237  Biso 1.000000     H
    H   1.0     0.951753     0.896840     0.411244  Biso 1.000000     H
    H   1.0     0.501890     0.076592     0.495874  Biso 1.000000     H
    H   1.0     0.431779     0.259906     0.810432  Biso 1.000000     H
    H   1.0     0.261009     0.052568     0.456807  Biso 1.000000     H
    H   1.0     0.053863     0.612683     0.507918  Biso 1.000000     H
    H   1.0     0.495837     0.501950     0.076602  Biso 1.000000     H
    H   1.0     0.440061     0.061035     0.890127  Biso 1.000000     H
    H   1.0     0.178535     0.522360     0.325391  Biso 1.000000     H
    H   1.0     0.740086     0.568190     0.189607  Biso 1.000000     H
    H   1.0     0.109909     0.938946     0.559938  Biso 1.000000     H
    H   1.0     0.946151     0.492147     0.387375  Biso 1.000000     H
    H   1.0     0.813900     0.608566     0.265764  Biso 1.000000     H
    H   1.0     0.157684     0.416979     0.224871  Biso 1.000000     H
    H   1.0     0.627189     0.000105     0.372814  Biso 1.000000     H
    H   1.0     0.416913     0.224837     0.157729  Biso 1.000000     H
    H   1.0     0.542719     0.308411     0.005858  Biso 1.000000     H
    H   1.0     0.112137     0.654874     0.603648  Biso 1.000000     H
    H   1.0     0.451636     0.846021     0.932733  Biso 1.000000     H
    H   1.0     0.810376     0.431833     0.259942  Biso 1.000000     H
    H   1.0     0.507832     0.053804     0.612643  Biso 1.000000     H
    H   1.0     0.842347     0.775168     0.583068  Biso 1.000000     H
    H   1.0     0.457177     0.994174     0.691643  Biso 1.000000     H
    H   1.0     0.612614     0.507912     0.053859  Biso 1.000000     H
    H   1.0     0.000000     0.318902     0.198267  Biso 1.000000     H
    H   1.0     0.775099     0.583070     0.842362  Biso 1.000000     H
    H   1.0     0.568142     0.189607     0.740120  Biso 1.000000     H
    H   1.0     0.548362     0.067296     0.153978  Biso 1.000000     H
    H   1.0     0.048284     0.588852     0.103251  Biso 1.000000     H
    H   1.0     0.583030     0.842327     0.775154  Biso 1.000000     H
    H   1.0     0.603548     0.112122     0.654926  Biso 1.000000     H
    H   1.0     0.846015     0.932754     0.451690  Biso 1.000000     H
    H   1.0     0.608498     0.265777     0.813969  Biso 1.000000     H
    H   1.0     0.265756     0.813882     0.608541  Biso 1.000000     H
    H   1.0     0.318800     0.198313     0.000000  Biso 1.000000     H
    H   1.0     0.351732     0.112516     0.931082  Biso 1.000000     H
    H   1.0     0.994214     0.691681     0.457269  Biso 1.000000     H
    H   1.0     0.648173     0.068969     0.887536  Biso 1.000000     H
    H   1.0     0.000030     0.372811     0.627217  Biso 1.000000     H
    H   1.0     0.887863     0.396446     0.345123  Biso 1.000000     H
    H   1.0     0.186128     0.734285     0.391488  Biso 1.000000     H
    H   1.0     0.372803     0.627223    -0.000161  Biso 1.000000     H
    H   1.0     0.559839     0.109929     0.938998  Biso 1.000000     H
    H   1.0     0.331515     0.156935     0.640250  Biso 1.000000     H
    H   1.0     0.391418     0.186085     0.734290  Biso 1.000000     H
    C   1.0     0.343186     0.211174     0.965508  Biso 1.000000     C
    C   1.0     0.895428     0.579435     0.364931  Biso 1.000000     C
    C   1.0     0.449475     0.928265     0.870482  Biso 1.000000     C
    C   1.0     0.890498     0.471607     0.868932  Biso 1.000000     C
    C   1.0     0.896859     0.386764     0.294042  Biso 1.000000     C
    C   1.0     0.337207     0.327551     0.002105  Biso 1.000000     C
    C   1.0     0.548571     0.206564     0.979646  Biso 1.000000     C
    C   1.0     0.413778     0.129982     0.501938  Biso 1.000000     C
    C   1.0     0.000007     0.410237     0.589784  Biso 1.000000     C
    C   1.0     0.550477     0.129563     0.071747  Biso 1.000000     C
    C   1.0     0.788826     0.656806     0.034550  Biso 1.000000     C
    C   1.0     0.457088     0.847584     0.634262  Biso 1.000000     C
    C   1.0     0.965464     0.343277     0.211153  Biso 1.000000     C
    C   1.0     0.847622     0.634302     0.457116  Biso 1.000000     C
    C   1.0     0.135177     0.820023     0.606081  Biso 1.000000     C
    C   1.0     0.644723     0.046542     0.723022  Biso 1.000000     C
    C   1.0     0.182346     0.870997     0.587471  Biso 1.000000     C
    C   1.0     0.853296     0.405933     0.246118  Biso 1.000000     C
    C   1.0     0.953449     0.355276     0.277017  Biso 1.000000     C
    C   1.0     0.069069     0.838327     0.434232  Biso 1.000000     C
    C   1.0     0.594050     0.146690     0.753936  Biso 1.000000     C
    C   1.0     0.815400     0.474599     0.957548  Biso 1.000000     C
    C   1.0     0.474558     0.957525     0.815456  Biso 1.000000     C
    C   1.0     0.046553     0.722986     0.644810  Biso 1.000000     C
    C   1.0     0.364917     0.895396     0.579399  Biso 1.000000     C
    C   1.0     0.074646     0.477400     0.218759  Biso 1.000000     C
    C   1.0     0.870410     0.449496     0.928268  Biso 1.000000     C
    C   1.0     0.034545     0.788852     0.656822  Biso 1.000000     C
    C   1.0     0.545392     0.866558     0.801504  Biso 1.000000     C
    C   1.0     0.454550     0.198500     0.133481  Biso 1.000000     C
    C   1.0     0.327540     0.002109     0.337248  Biso 1.000000     C
    C   1.0     0.122971     0.225265     0.454673  Biso 1.000000     C
    C   1.0     0.498091     0.870011     0.586213  Biso 1.000000     C
    C   1.0     0.020444     0.793526     0.451398  Biso 1.000000     C
    C   1.0     0.528376     0.109449     0.131076  Biso 1.000000     C
    C   1.0     0.918455     0.532103     0.406635  Biso 1.000000     C
    C   1.0     0.477325     0.218765     0.074682  Biso 1.000000     C
    C   1.0     0.386696     0.294040     0.896903  Biso 1.000000     C
    C   1.0     0.479973     0.143684     0.162331  Biso 1.000000     C
    C   1.0     0.430872     0.409137     0.138737  Biso 1.000000     C
    C   1.0     0.656730     0.034531     0.788883  Biso 1.000000     C
    C   1.0     0.750888     0.408357     0.139764  Biso 1.000000     C
    C   1.0     0.871004     0.587472     0.182350  Biso 1.000000     C
    C   1.0     0.211176     0.965510     0.343245  Biso 1.000000     C
    C   1.0     0.078251     0.836561     0.637628  Biso 1.000000     C
    C   1.0     0.218753     0.074615     0.477390  Biso 1.000000     C
    C   1.0     0.587394     0.182361     0.871056  Biso 1.000000     C
    C   1.0     0.967489     0.553500     0.273043  Biso 1.000000     C
    C   1.0     0.613232     0.103130     0.706006  Biso 1.000000     C
    C   1.0     0.198500     0.133416     0.454596  Biso 1.000000     C
    C   1.0     0.907989     0.574921     0.294887  Biso 1.000000     C
    C   1.0     0.635064     0.420619     0.104562  Biso 1.000000     C
    C   1.0     0.451325     0.020389     0.793492  Biso 1.000000     C
    C   1.0     0.408285     0.139746     0.750947  Biso 1.000000     C
    C   1.0     0.634271     0.457099     0.847697  Biso 1.000000     C
    C   1.0     0.129975     0.501922     0.413848  Biso 1.000000     C
    C   1.0     0.630475     0.391228     0.859874  Biso 1.000000     C
    C   1.0     0.905347     0.534954     0.472251  Biso 1.000000     C
    C   1.0     0.391214     0.859744     0.630477  Biso 1.000000     C
    C   1.0     0.434174     0.069027     0.838304  Biso 1.000000     C
    C   1.0     0.545325     0.774724     0.877036  Biso 1.000000     C
    C   1.0     0.362373     0.163446     0.921806  Biso 1.000000     C
    C   1.0     0.859795     0.630529     0.391242  Biso 1.000000     C
    C   1.0     0.868935     0.890600     0.471653  Biso 1.000000     C
    C   1.0     0.355191     0.277031     0.953481  Biso 1.000000     C
    C   1.0     0.104610     0.635116     0.420647  Biso 1.000000     C
    C   1.0     0.861227     0.590886     0.569134  Biso 1.000000     C
    C   1.0     0.820027     0.606065     0.135175  Biso 1.000000     C
    C   1.0     0.525366     0.184586     0.042500  Biso 1.000000     C
    C   1.0     0.608761     0.369511     0.140167  Biso 1.000000     C
    C   1.0     0.472245     0.905346     0.534947  Biso 1.000000     C
    C   1.0     0.928278     0.870521     0.449546  Biso 1.000000     C
    C   1.0     0.294879     0.907966     0.574892  Biso 1.000000     C
    C   1.0     0.409117     0.138773     0.430908  Biso 1.000000     C
    C   1.0     0.109440     0.131049     0.528398  Biso 1.000000     C
    C   1.0     0.838250     0.434232     0.069044  Biso 1.000000     C
    C   1.0     0.032548     0.727015     0.446568  Biso 1.000000     C
    C   1.0     0.410230     0.589788    -0.000054  Biso 1.000000     C
    C   1.0     0.876976     0.545345     0.774736  Biso 1.000000     C
    C   1.0     0.589760     0.000034     0.410246  Biso 1.000000     C
    C   1.0     0.405869     0.246103     0.853349  Biso 1.000000     C
    C   1.0     0.406628     0.918440     0.532085  Biso 1.000000     C
    C   1.0     0.605992     0.135172     0.820077  Biso 1.000000     C
    C   1.0     0.753890     0.594106     0.146695  Biso 1.000000     C
    C   1.0     0.957551     0.815498     0.474628  Biso 1.000000     C
    C   1.0     0.369493     0.140225     0.608816  Biso 1.000000     C
    C   1.0     0.542887     0.365725     0.152317  Biso 1.000000     C
    C   1.0     0.979586     0.548663     0.206533  Biso 1.000000     C
    C   1.0     0.412514     0.128981     0.817695  Biso 1.000000     C
    C   1.0     0.129018     0.817701     0.412572  Biso 1.000000     C
    C   1.0     0.146700     0.753877     0.594148  Biso 1.000000     C
    C   1.0     0.662737     0.997913     0.672498  Biso 1.000000     C
    C   1.0     0.465037     0.094632     0.527782  Biso 1.000000     C
    C   1.0     0.860235     0.591696     0.249100  Biso 1.000000     C
    C   1.0     0.184564     0.042446     0.525426  Biso 1.000000     C
    C   1.0     0.590871     0.569141     0.861274  Biso 1.000000     C
    C   1.0     0.522597     0.925360     0.781261  Biso 1.000000     C
    C   1.0     0.162331     0.480026     0.143716  Biso 1.000000     C
    C   1.0     0.140251     0.608795     0.369565  Biso 1.000000     C
    C   1.0     0.527736     0.465081     0.094621  Biso 1.000000     C
    C   1.0     0.672451     0.662779     0.997936  Biso 1.000000     C
    C   1.0     0.569117     0.861244     0.590886  Biso 1.000000     C
    C   1.0     0.249093     0.860219     0.591675  Biso 1.000000     C
    C   1.0     0.094637     0.527786     0.465110  Biso 1.000000     C
    C   1.0     0.139794     0.750949     0.408359  Biso 1.000000     C
    C   1.0     0.534926     0.472292     0.905409  Biso 1.000000     C
    C   1.0     0.225301     0.454699     0.123007  Biso 1.000000     C
    C   1.0     0.129541     0.071717     0.550515  Biso 1.000000     C
    C   1.0     0.467884     0.081516     0.593396  Biso 1.000000     C
    C   1.0     0.081555     0.593412     0.467964  Biso 1.000000     C
    C   1.0     0.781210     0.522642     0.925388  Biso 1.000000     C
    C   1.0     0.131098     0.528431     0.109473  Biso 1.000000     C
    C   1.0     0.454663     0.122972     0.225305  Biso 1.000000     C
    C   1.0     0.138751     0.430889     0.409168  Biso 1.000000     C
    C   1.0     0.133454     0.454616     0.198522  Biso 1.000000     C
    C   1.0     0.103143     0.705956     0.613330  Biso 1.000000     C
    C   1.0     0.179986     0.864871     0.393960  Biso 1.000000     C
    C   1.0     0.501891     0.413808     0.129945  Biso 1.000000     C
    C   1.0     0.817635     0.412585     0.128999  Biso 1.000000     C
    C   1.0     0.294053     0.896890     0.386724  Biso 1.000000     C
    C   1.0     0.637534     0.078238     0.836604  Biso 1.000000     C
    C   1.0     0.591625     0.249111     0.860300  Biso 1.000000     C
    C   1.0     0.801449     0.545428     0.866584  Biso 1.000000     C
    C   1.0     0.277034     0.953480     0.355242  Biso 1.000000     C
    C   1.0     0.553406     0.273072     0.967556  Biso 1.000000     C
    C   1.0     0.925387     0.781299     0.522658  Biso 1.000000     C
    C   1.0     0.705958     0.613285     0.103147  Biso 1.000000     C
    C   1.0     0.793448     0.451382     0.020410  Biso 1.000000     C
    C   1.0     0.042484     0.525440     0.184569  Biso 1.000000     C
    C   1.0     0.273040     0.967469     0.553475  Biso 1.000000     C
    C   1.0     0.705104     0.425129     0.092007  Biso 1.000000     C
    C   1.0     0.420570     0.104567     0.635114  Biso 1.000000     C
    C   1.0     0.532052     0.406678     0.918525  Biso 1.000000     C
    C   1.0     0.921752     0.362458     0.163441  Biso 1.000000     C
    C   1.0     0.071758     0.550540     0.129559  Biso 1.000000     C
    C   1.0     0.593355     0.467947     0.081536  Biso 1.000000     C
    C   1.0     0.579373     0.364948     0.895506  Biso 1.000000     C
    C   1.0     0.520000     0.837697     0.856328  Biso 1.000000     C
    C   1.0     0.161730     0.930949     0.565811  Biso 1.000000     C
    C   1.0     0.002104     0.337265     0.327531  Biso 1.000000     C
    C   1.0     0.774711     0.877032     0.545353  Biso 1.000000     C
    C   1.0     0.864812     0.393987     0.179975  Biso 1.000000     C
    C   1.0     0.870014     0.586224     0.498107  Biso 1.000000     C
    C   1.0     0.143681     0.162287     0.479993  Biso 1.000000     C
    C   1.0     0.365720     0.152400     0.542945  Biso 1.000000     C
    C   1.0     0.565724     0.161752     0.931006  Biso 1.000000     C
    C   1.0     0.722969     0.644774     0.046559  Biso 1.000000     C
    C   1.0     0.856260     0.520020     0.837705  Biso 1.000000     C
    C   1.0     0.586199     0.498114     0.870071  Biso 1.000000     C
    C   1.0     0.471593     0.868931     0.890573  Biso 1.000000     C
    C   1.0     0.837697     0.856343     0.520044  Biso 1.000000     C
    C   1.0     0.163460     0.921810     0.362431  Biso 1.000000     C
    C   1.0     0.930955     0.565812     0.161729  Biso 1.000000     C
    C   1.0     0.092047     0.705164     0.425146  Biso 1.000000     C
    C   1.0     0.726943     0.446549     0.032509  Biso 1.000000     C
    C   1.0     0.866575     0.801527     0.545439  Biso 1.000000     C
    C   1.0     0.574840     0.294906     0.908058  Biso 1.000000     C
    C   1.0     0.206533     0.979577     0.548649  Biso 1.000000     C
    C   1.0     0.393914     0.179964     0.864873  Biso 1.000000     C
    C   1.0     0.246125     0.853340     0.405898  Biso 1.000000     C
    C   1.0     0.836546     0.637613     0.078246  Biso 1.000000     C
    C   1.0     0.152398     0.542914     0.365787  Biso 1.000000     C
    C   1.0     0.425068     0.091990     0.705151  Biso 1.000000     C
    C   1.0     0.446489     0.032485     0.726986  Biso 1.000000     C
    C   1.0     0.997882     0.672479     0.662792  Biso 1.000000     C
    O   1.0     0.691467     0.693877     0.949137  Biso 1.000000     O
    O   1.0     0.306111     0.308538     0.050905  Biso 1.000000     O
    O   1.0     0.266761     0.194757     0.286187  Biso 1.000000     O
    O   1.0     0.355313     0.386433     0.992025  Biso 1.000000     O
    O   1.0     0.747926     0.925567     0.519069  Biso 1.000000     O
    O   1.0     0.480945     0.074426     0.252068  Biso 1.000000     O
    O   1.0     0.805237     0.733261     0.713845  Biso 1.000000     O
    O   1.0     0.308516     0.050915     0.306161  Biso 1.000000     O
    O   1.0     0.050913     0.306177     0.308509  Biso 1.000000     O
    O   1.0     0.752299     0.844392     0.591540  Biso 1.000000     O
    O   1.0     0.252071     0.480976     0.074465  Biso 1.000000     O
    O   1.0     0.991978     0.355344     0.386424  Biso 1.000000     O
    O   1.0     0.355368     0.157862     0.406118  Biso 1.000000     O
    O   1.0    -0.002596     0.469356     0.608141  Biso 1.000000     O
    O   1.0     0.644622     0.593916     0.842184  Biso 1.000000     O
    O   1.0     0.157838     0.406102     0.355410  Biso 1.000000     O
    O   1.0     0.593905     0.842153     0.644636  Biso 1.000000     O
    O   1.0     0.286179     0.266766     0.194757  Biso 1.000000     O
    O   1.0     0.074425     0.252036     0.480952  Biso 1.000000     O
    O   1.0     0.693836     0.949112     0.691512  Biso 1.000000     O
    O   1.0     0.591522     0.752315     0.844401  Biso 1.000000     O
    O   1.0     0.406090     0.355381     0.157819  Biso 1.000000     O
    O   1.0     0.713801     0.805268     0.733261  Biso 1.000000     O
    O   1.0     0.541862     0.602906     0.874732  Biso 1.000000     O
    O   1.0     0.733226     0.713835     0.805271  Biso 1.000000     O
    O   1.0     0.125256     0.397123     0.458162  Biso 1.000000     O
    O   1.0     0.842123     0.644634     0.593930  Biso 1.000000     O
    O   1.0     0.949068     0.691506     0.693865  Biso 1.000000     O
    O   1.0     0.391862     0.530679     0.000000  Biso 1.000000     O
    O   1.0     0.644649     0.008008     0.613611  Biso 1.000000     O
    O   1.0     0.008003     0.613590     0.644694  Biso 1.000000     O
    O   1.0     0.608113    -0.002597     0.469360  Biso 1.000000     O
    O   1.0     0.602877     0.874737     0.541885  Biso 1.000000     O
    O   1.0     0.194745     0.286186     0.266770  Biso 1.000000     O
    O   1.0     0.925514     0.519061     0.747957  Biso 1.000000     O
    O   1.0     0.469354     0.608130    -0.002592  Biso 1.000000     O
    O   1.0     0.247707     0.408498     0.155634  Biso 1.000000     O
    O   1.0     0.155607     0.247680     0.408483  Biso 1.000000     O
    O   1.0     0.408479     0.155614     0.247730  Biso 1.000000     O
    O   1.0     0.397106     0.458145     0.125278  Biso 1.000000     O
    O   1.0     0.530642     0.000000     0.391895  Biso 1.000000     O
    O   1.0     0.386425     0.992018     0.355341  Biso 1.000000     O
    O   1.0     0.613575     0.644672     0.008008  Biso 1.000000     O
    O   1.0     0.000000     0.391881     0.530664  Biso 1.000000     O
    O   1.0     0.458119     0.125278     0.397147  Biso 1.000000     O
    O   1.0     0.519046     0.747956     0.925578  Biso 1.000000     O
    O   1.0     0.874710     0.541882     0.602894  Biso 1.000000     O
    O   1.0     0.844352     0.591552     0.752335  Biso 1.000000     O
    S   1.0     0.265794     0.265809     0.265806  Biso 1.000000     S
    S   1.0     0.734193     0.734218     0.734224  Biso 1.000000     S
   Zn   1.0     0.660450     0.952939     0.536088  Biso 1.000000    Zn
   Zn   1.0     0.536060     0.660479     0.952952  Biso 1.000000    Zn
   Zn   1.0     0.047068     0.339528     0.463936  Biso 1.000000    Zn
   Zn   1.0     0.657918     0.688702     0.858074  Biso 1.000000    Zn
   Zn   1.0     0.342069     0.141963     0.311328  Biso 1.000000    Zn
   Zn   1.0     0.858029     0.657928     0.688706  Biso 1.000000    Zn
   Zn   1.0     0.311308     0.342088     0.141964  Biso 1.000000    Zn
   Zn   1.0     0.952903     0.536084     0.660485  Biso 1.000000    Zn
   Zn   1.0     0.141951     0.311316     0.342097  Biso 1.000000    Zn
   Zn   1.0     0.339533     0.463948     0.047079  Biso 1.000000    Zn
   Zn   1.0     0.463926     0.047077     0.339550  Biso 1.000000    Zn
   Zn   1.0     0.688679     0.858057     0.657935  Biso 1.000000    Zn
