#======================================================================

# CRYSTAL DATA

#----------------------------------------------------------------------

data_VESTA_phase_1


_pd_phase_name                         MOF
_cell_length_a                         14.76100
_cell_length_b                         14.76200
_cell_length_c                         14.76100
_cell_angle_alpha                      109.41200
_cell_angle_beta                       109.34800
_cell_angle_gamma                      109.35200
_symmetry_space_group_name_H-M         "P 1"
_symmetry_Int_Tables_number            1

loop_
_symmetry_equiv_pos_as_xyz
   "x, y, z"

loop_
   _atom_site_label
   _atom_site_occupancy
   _atom_site_fract_x
   _atom_site_fract_y
   _atom_site_fract_z
   _atom_site_adp_type
   _atom_site_B_iso_or_equiv
   _atom_site_type_symbol
    H   1.0     0.122034     0.659447     0.237302  Biso 1.000000     H
    H   1.0     0.578243     0.462965     0.341534  Biso 1.000000     H
    H   1.0     0.000705     0.372691     0.471940  Biso 1.000000     H
    H   1.0     0.239136     0.451922     0.927248  Biso 1.000000     H
    H   1.0     0.372694     0.471952     0.000577  Biso 1.000000     H
    H   1.0     0.462814     0.578146     0.341381  Biso 1.000000     H
    H   1.0     0.687599     0.212344     0.761539  Biso 1.000000     H
    H   1.0     0.761599     0.687494     0.212315  Biso 1.000000     H
    H   1.0     0.787597     0.474641     0.548643  Biso 1.000000     H
    H   1.0     0.462818     0.341365     0.578154  Biso 1.000000     H
    H   1.0     0.525722     0.312968     0.074877  Biso 1.000000     H
    H   1.0     0.883716     0.762808     0.420952  Biso 1.000000     H
    H   1.0     0.113364     0.536638     0.877853  Biso 1.000000     H
    H   1.0     0.687612     0.761520     0.212347  Biso 1.000000     H
    H   1.0     0.474490     0.548534     0.787516  Biso 1.000000     H
    H   1.0     0.122030     0.237299     0.659457  Biso 1.000000     H
    H   1.0     0.452012     0.927336     0.239158  Biso 1.000000     H
    H   1.0     0.527861     0.900786     0.527968  Biso 1.000000     H
    H   1.0     0.787597     0.548624     0.474658  Biso 1.000000     H
    H   1.0     0.420844     0.883677     0.762780  Biso 1.000000     H
    H   1.0     0.472092     0.372793     0.000824  Biso 1.000000     H
    H   1.0     0.762724     0.883592     0.420903  Biso 1.000000     H
    H   1.0     0.927354     0.239090     0.451832  Biso 1.000000     H
    H   1.0     0.312903     0.074746     0.525665  Biso 1.000000     H
    H   1.0     0.883713     0.420942     0.762829  Biso 1.000000     H
    H   1.0     0.628272     0.099311     0.628143  Biso 1.000000     H
    H   1.0     0.074789     0.312856     0.525528  Biso 1.000000     H
    H   1.0     0.474482     0.787496     0.548548  Biso 1.000000     H
    H   1.0     0.527861     0.527956     0.900811  Biso 1.000000     H
    H   1.0     0.472099     0.000816     0.372805  Biso 1.000000     H
    H   1.0     0.659552     0.237255     0.121974  Biso 1.000000     H
    H   1.0     0.548489     0.787464     0.474523  Biso 1.000000     H
    H   1.0     0.548494     0.474514     0.787485  Biso 1.000000     H
    H   1.0     0.237390     0.659598     0.122011  Biso 1.000000     H
    H   1.0     0.628283     0.628129     0.099310  Biso 1.000000     H
    H   1.0     0.239126     0.927218     0.451930  Biso 1.000000     H
    H   1.0     0.113367     0.877825     0.536666  Biso 1.000000     H
    H   1.0     0.341463     0.462840     0.578100  Biso 1.000000     H
    H   1.0     0.761590     0.212312     0.687507  Biso 1.000000     H
    H   1.0     0.212255     0.687603     0.761611  Biso 1.000000     H
    H   1.0     0.000697     0.471932     0.372702  Biso 1.000000     H
    H   1.0     0.536702     0.877783     0.113436  Biso 1.000000     H
    H   1.0     0.237378     0.122015     0.659613  Biso 1.000000     H
    H   1.0     0.099278     0.628232     0.628257  Biso 1.000000     H
    H   1.0     0.372694     0.000577     0.471964  Biso 1.000000     H
    H   1.0     0.420837     0.762754     0.883683  Biso 1.000000     H
    H   1.0     0.900866     0.527981     0.527994  Biso 1.000000     H
    H   1.0     0.877819     0.113367     0.536539  Biso 1.000000     H
    H   1.0     0.877813     0.536516     0.113352  Biso 1.000000     H
    H   1.0     0.312905     0.525651     0.074754  Biso 1.000000     H
    H   1.0     0.762717     0.420892     0.883596  Biso 1.000000     H
    H   1.0     0.212256     0.761582     0.687630  Biso 1.000000     H
    H   1.0     0.578261     0.341526     0.462973  Biso 1.000000     H
    H   1.0     0.659562     0.121982     0.237247  Biso 1.000000     H
    H   1.0     0.927349     0.451825     0.239097  Biso 1.000000     H
    H   1.0     0.452012     0.239159     0.927371  Biso 1.000000     H
    H   1.0     0.341469     0.578109     0.462845  Biso 1.000000     H
    H   1.0     0.074783     0.525520     0.312861  Biso 1.000000     H
    H   1.0     0.525728     0.074863     0.312971  Biso 1.000000     H
    H   1.0     0.536699     0.113449     0.877816  Biso 1.000000     H
    C   1.0     0.055774     0.476406     0.791001  Biso 1.000000     C
    C   1.0     0.488824     0.488869     0.810093  Biso 1.000000     C
    C   1.0     0.629110     0.245482     0.629064  Biso 1.000000     C
    C   1.0     0.942214     0.419171     0.734129  Biso 1.000000     C
    C   1.0     0.371024     0.616815     0.000108  Biso 1.000000     C
    C   1.0     0.314589     0.523189     0.580195  Biso 1.000000     C
    C   1.0     0.580299     0.523277     0.314651  Biso 1.000000     C
    C   1.0     0.679550     0.189976     0.679468  Biso 1.000000     C
    C   1.0     0.629121     0.629058     0.245496  Biso 1.000000     C
    C   1.0     0.000803     0.321029     0.511262  Biso 1.000000     C
    C   1.0     0.371021     0.000113     0.616837  Biso 1.000000     C
    C   1.0     0.488820     0.810072     0.488880  Biso 1.000000     C
    C   1.0     0.580305     0.314638     0.523283  Biso 1.000000     C
    C   1.0     0.000797     0.511253     0.321038  Biso 1.000000     C
    C   1.0     0.686358     0.208985     0.265980  Biso 1.000000     C
    C   1.0     0.942215     0.734109     0.419183  Biso 1.000000     C
    C   1.0     0.616885     0.000179     0.371041  Biso 1.000000     C
    C   1.0     0.000149     0.371042     0.616791  Biso 1.000000     C
    C   1.0     0.523216     0.314563     0.580249  Biso 1.000000     C
    C   1.0     0.321048     0.511327     0.000728  Biso 1.000000     C
    C   1.0     0.383396     0.383411     0.755132  Biso 1.000000     C
    C   1.0     0.686352     0.265983     0.208981  Biso 1.000000     C
    C   1.0     0.616877     0.371032     0.000177  Biso 1.000000     C
    C   1.0     0.476423     0.055817     0.790988  Biso 1.000000     C
    C   1.0     0.476424     0.790958     0.055807  Biso 1.000000     C
    C   1.0     0.734085     0.419121     0.942142  Biso 1.000000     C
    C   1.0     0.790997     0.055775     0.476334  Biso 1.000000     C
    C   1.0     0.511425     0.000865     0.321107  Biso 1.000000     C
    C   1.0     0.734088     0.942130     0.419132  Biso 1.000000     C
    C   1.0     0.679559     0.679453     0.189978  Biso 1.000000     C
    C   1.0     0.245412     0.629044     0.629061  Biso 1.000000     C
    C   1.0     0.511418     0.321100     0.000873  Biso 1.000000     C
    C   1.0     0.810182     0.488943     0.488958  Biso 1.000000     C
    C   1.0     0.790989     0.476318     0.055763  Biso 1.000000     C
    C   1.0     0.266047     0.208996     0.686347  Biso 1.000000     C
    C   1.0     0.209011     0.266000     0.686269  Biso 1.000000     C
    C   1.0     0.419107     0.734087     0.942187  Biso 1.000000     C
    C   1.0     0.321046     0.000726     0.511341  Biso 1.000000     C
    C   1.0     0.266053     0.686328     0.208996  Biso 1.000000     C
    C   1.0     0.189912     0.679523     0.679549  Biso 1.000000     C
    C   1.0     0.419106     0.942174     0.734110  Biso 1.000000     C
    C   1.0     0.055775     0.790978     0.476425  Biso 1.000000     C
    C   1.0     0.523215     0.580241     0.314577  Biso 1.000000     C
    C   1.0     0.755220     0.383452     0.383460  Biso 1.000000     C
    C   1.0     0.383395     0.755107     0.383417  Biso 1.000000     C
    C   1.0     0.209014     0.686256     0.266004  Biso 1.000000     C
    C   1.0     0.000146     0.616777     0.371050  Biso 1.000000     C
    C   1.0     0.314590     0.580193     0.523194  Biso 1.000000     C
    N   1.0     0.271226     0.554537     0.647369  Biso 1.000000     N
    N   1.0     0.092212     0.445535     0.716761  Biso 1.000000     N
    N   1.0     0.729519     0.283325     0.376150  Biso 1.000000     N
    N   1.0     0.716835     0.445479     0.092254  Biso 1.000000     N
    N   1.0     0.554533     0.271212     0.647368  Biso 1.000000     N
    N   1.0     0.554538     0.647356     0.271222  Biso 1.000000     N
    N   1.0     0.352205     0.624133     0.907188  Biso 1.000000     N
    N   1.0     0.647493     0.554598     0.271344  Biso 1.000000     N
    N   1.0     0.729511     0.376146     0.283329  Biso 1.000000     N
    N   1.0     0.445586     0.716765     0.092226  Biso 1.000000     N
    N   1.0     0.624154     0.907195     0.352296  Biso 1.000000     N
    N   1.0     0.376157     0.283296     0.729493  Biso 1.000000     N
    N   1.0     0.271231     0.647361     0.554554  Biso 1.000000     N
    N   1.0     0.907263     0.352290     0.624133  Biso 1.000000     N
    N   1.0     0.283273     0.376128     0.729368  Biso 1.000000     N
    N   1.0     0.092211     0.716740     0.445558  Biso 1.000000     N
    N   1.0     0.352203     0.907171     0.624151  Biso 1.000000     N
    N   1.0     0.445577     0.092230     0.716789  Biso 1.000000     N
    N   1.0     0.716841     0.092256     0.445492  Biso 1.000000     N
    N   1.0     0.907261     0.624118     0.352299  Biso 1.000000     N
    N   1.0     0.376161     0.729475     0.283299  Biso 1.000000     N
    N   1.0     0.624150     0.352292     0.907213  Biso 1.000000     N
    N   1.0     0.283272     0.729355     0.376137  Biso 1.000000     N
    N   1.0     0.647498     0.271339     0.554610  Biso 1.000000     N
   Zn   1.0     0.750569     0.500170     0.249742  Biso 1.000000    Zn
   Zn   1.0     0.249612     0.500164     0.750414  Biso 1.000000    Zn
   Zn   1.0     0.750574     0.249735     0.500177  Biso 1.000000    Zn
   Zn   1.0     0.249611     0.750400     0.500183  Biso 1.000000    Zn
   Zn   1.0     0.500184     0.249664     0.750486  Biso 1.000000    Zn
   Zn   1.0     0.500197     0.750468     0.249670  Biso 1.000000    Zn
