#======================================================================

# CRYSTAL DATA

#----------------------------------------------------------------------

data_VESTA_phase_1


_pd_phase_name                         MOF
_cell_length_a                         11.25200
_cell_length_b                         17.65500
_cell_length_c                         21.73300
_cell_angle_alpha                      90.00000
_cell_angle_beta                       90.00000
_cell_angle_gamma                      90.00000
_symmetry_space_group_name_H-M         "P 1"
_symmetry_Int_Tables_number            1

loop_
_symmetry_equiv_pos_as_xyz
   "x, y, z"

loop_
   _atom_site_label
   _atom_site_occupancy
   _atom_site_fract_x
   _atom_site_fract_y
   _atom_site_fract_z
   _atom_site_adp_type
   _atom_site_B_iso_or_equiv
   _atom_site_type_symbol
    H   1.0     0.386942     0.181648     0.200063  Biso 1.000000     H
    H   1.0     0.880658     0.181648     0.200063  Biso 1.000000     H
    H   1.0     0.108236     0.552614     0.323949  Biso 1.000000     H
    H   1.0     0.601953     0.552614     0.323949  Biso 1.000000     H
    H   1.0     0.442726     0.189813     0.398665  Biso 1.000000     H
    H   1.0     0.936442     0.189813     0.398665  Biso 1.000000     H
    H   1.0     0.079635     0.779748     0.914351  Biso 1.000000     H
    H   1.0     0.573351     0.779757     0.914348  Biso 1.000000     H
    H   1.0     0.107918     0.469493     0.687012  Biso 1.000000     H
    H   1.0     0.601634     0.469494     0.687012  Biso 1.000000     H
    H   1.0     0.080278     0.242238     0.096755  Biso 1.000000     H
    H   1.0     0.573994     0.242239     0.096755  Biso 1.000000     H
    H   1.0     0.386036     0.840863     0.811342  Biso 1.000000     H
    H   1.0     0.879756     0.840862     0.811339  Biso 1.000000     H
    H   1.0     0.365774     0.458326     0.953717  Biso 1.000000     H
    H   1.0     0.859489     0.458326     0.953717  Biso 1.000000     H
    H   1.0     0.228992     0.039046     0.195546  Biso 1.000000     H
    H   1.0     0.722707     0.039046     0.195546  Biso 1.000000     H
    H   1.0     0.072033     0.221655     0.308195  Biso 1.000000     H
    H   1.0     0.565748     0.221655     0.308195  Biso 1.000000     H
    H   1.0     0.444042     0.563801     0.125194  Biso 1.000000     H
    H   1.0     0.937758     0.563801     0.125193  Biso 1.000000     H
    H   1.0     0.175964     0.705205     0.566001  Biso 1.000000     H
    H   1.0     0.669680     0.705205     0.566004  Biso 1.000000     H
    H   1.0     0.384889     0.040607     0.182738  Biso 1.000000     H
    H   1.0     0.878605     0.040607     0.182738  Biso 1.000000     H
    H   1.0     0.358717     0.612521     0.744414  Biso 1.000000     H
    H   1.0     0.852441     0.612522     0.744415  Biso 1.000000     H
    H   1.0     0.401104     0.103592     0.290497  Biso 1.000000     H
    H   1.0     0.894820     0.103592     0.290497  Biso 1.000000     H
    H   1.0     0.355394     0.418263     0.152837  Biso 1.000000     H
    H   1.0     0.849111     0.418263     0.152836  Biso 1.000000     H
    H   1.0     0.179739     0.662969     0.372913  Biso 1.000000     H
    H   1.0     0.673455     0.662969     0.372913  Biso 1.000000     H
    H   1.0     0.412193     0.754151     0.409067  Biso 1.000000     H
    H   1.0     0.905908     0.754153     0.409067  Biso 1.000000     H
    H   1.0     0.359330     0.409864     0.266654  Biso 1.000000     H
    H   1.0     0.853045     0.409863     0.266654  Biso 1.000000     H
    H   1.0     0.048335     0.971051     0.629569  Biso 1.000000     H
    H   1.0     0.542050     0.971050     0.629569  Biso 1.000000     H
    H   1.0     0.148611     0.967992     0.719047  Biso 1.000000     H
    H   1.0     0.642328     0.967994     0.719046  Biso 1.000000     H
    H   1.0     0.421353     0.288683     0.813013  Biso 1.000000     H
    H   1.0     0.915066     0.288682     0.813014  Biso 1.000000     H
    H   1.0     0.137307     0.930204     0.353292  Biso 1.000000     H
    H   1.0     0.631022     0.930204     0.353294  Biso 1.000000     H
    H   1.0     0.092086     0.615852     0.216275  Biso 1.000000     H
    H   1.0     0.585802     0.615852     0.216276  Biso 1.000000     H
    H   1.0     0.227831     0.983375     0.815404  Biso 1.000000     H
    H   1.0     0.721550     0.983374     0.815403  Biso 1.000000     H
    H   1.0     0.455205     0.220159     0.002720  Biso 1.000000     H
    H   1.0     0.948920     0.220158     0.002721  Biso 1.000000     H
    H   1.0     0.071569     0.800665     0.702864  Biso 1.000000     H
    H   1.0     0.565281     0.800663     0.702865  Biso 1.000000     H
    H   1.0     0.343478     0.455951     0.796239  Biso 1.000000     H
    H   1.0     0.837193     0.455950     0.796239  Biso 1.000000     H
    H   1.0     0.137365     0.092011     0.657621  Biso 1.000000     H
    H   1.0     0.631079     0.092010     0.657620  Biso 1.000000     H
    H   1.0     0.176336     0.317118     0.444990  Biso 1.000000     H
    H   1.0     0.670053     0.317118     0.444991  Biso 1.000000     H
    H   1.0     0.354584     0.603836     0.858212  Biso 1.000000     H
    H   1.0     0.848283     0.603837     0.858211  Biso 1.000000     H
    H   1.0     0.263833     0.471125     0.699787  Biso 1.000000     H
    H   1.0     0.757549     0.471126     0.699787  Biso 1.000000     H
    H   1.0     0.421297     0.733563     0.197940  Biso 1.000000     H
    H   1.0     0.915016     0.733562     0.197941  Biso 1.000000     H
    H   1.0     0.126992     0.051046     0.449414  Biso 1.000000     H
    H   1.0     0.620708     0.051047     0.449414  Biso 1.000000     H
    H   1.0     0.133315     0.922125     0.239330  Biso 1.000000     H
    H   1.0     0.627032     0.922124     0.239332  Biso 1.000000     H
    H   1.0     0.266873     0.124033     0.860194  Biso 1.000000     H
    H   1.0     0.760586     0.124031     0.860195  Biso 1.000000     H
    H   1.0     0.037985     0.290891     0.508086  Biso 1.000000     H
    H   1.0     0.531703     0.290893     0.508087  Biso 1.000000     H
    H   1.0     0.343746     0.566373     0.214744  Biso 1.000000     H
    H   1.0     0.837462     0.566372     0.214743  Biso 1.000000     H
    H   1.0     0.225769     0.385808     0.355169  Biso 1.000000     H
    H   1.0     0.719485     0.385808     0.355169  Biso 1.000000     H
    H   1.0     0.454505     0.801896     0.000000  Biso 1.000000     H
    H   1.0     0.948221     0.801890     0.000000  Biso 1.000000     H
    H   1.0     0.366059     0.563924     0.057268  Biso 1.000000     H
    H   1.0     0.859775     0.563924     0.057268  Biso 1.000000     H
    H   1.0     0.311588     0.168044     0.469388  Biso 1.000000     H
    H   1.0     0.805303     0.168044     0.469388  Biso 1.000000     H
    H   1.0     0.442363     0.832488     0.612353  Biso 1.000000     H
    H   1.0     0.936081     0.832489     0.612353  Biso 1.000000     H
    H   1.0     0.050531     0.320337     0.903550  Biso 1.000000     H
    H   1.0     0.544250     0.320338     0.903550  Biso 1.000000     H
    H   1.0     0.316424     0.829733     0.060942  Biso 1.000000     H
    H   1.0     0.810140     0.829731     0.060943  Biso 1.000000     H
    H   1.0     0.106020     0.328479     0.704370  Biso 1.000000     H
    H   1.0     0.599736     0.328480     0.704368  Biso 1.000000     H
    H   1.0     0.311257     0.854265     0.541617  Biso 1.000000     H
    H   1.0     0.804974     0.854264     0.541617  Biso 1.000000     H
    H   1.0     0.133492     0.100185     0.771592  Biso 1.000000     H
    H   1.0     0.627206     0.100183     0.771593  Biso 1.000000     H
    H   1.0     0.400273     0.918632     0.720706  Biso 1.000000     H
    H   1.0     0.893991     0.918634     0.720703  Biso 1.000000     H
    H   1.0     0.091817     0.406454     0.794729  Biso 1.000000     H
    H   1.0     0.585532     0.406453     0.794728  Biso 1.000000     H
    H   1.0     0.316308     0.192430     0.950090  Biso 1.000000     H
    H   1.0     0.810022     0.192428     0.950092  Biso 1.000000     H
    H   1.0     0.412473     0.268192     0.601892  Biso 1.000000     H
    H   1.0     0.906187     0.268191     0.601891  Biso 1.000000     H
    H   1.0     0.106056     0.693648     0.306775  Biso 1.000000     H
    H   1.0     0.599772     0.693648     0.306775  Biso 1.000000     H
    H   1.0     0.266825     0.898223     0.150796  Biso 1.000000     H
    H   1.0     0.760543     0.898221     0.150798  Biso 1.000000     H
    H   1.0     0.049089     0.051139     0.381451  Biso 1.000000     H
    H   1.0     0.542805     0.051139     0.381450  Biso 1.000000     H
    H   1.0     0.312043     0.871667     0.877355  Biso 1.000000     H
    H   1.0     0.805752     0.871661     0.877350  Biso 1.000000     H
    H   1.0     0.037637     0.731460     0.502895  Biso 1.000000     H
    H   1.0     0.531355     0.731458     0.502894  Biso 1.000000     H
    H   1.0     0.267513     0.107076     0.566117  Biso 1.000000     H
    H   1.0     0.761228     0.107075     0.566117  Biso 1.000000     H
    H   1.0     0.313472     0.150966     0.133876  Biso 1.000000     H
    H   1.0     0.807187     0.150966     0.133876  Biso 1.000000     H
    H   1.0     0.267357     0.915159     0.444830  Biso 1.000000     H
    H   1.0     0.761072     0.915159     0.444832  Biso 1.000000     H
    H   1.0     0.224913     0.618337     0.949881  Biso 1.000000     H
    H   1.0     0.718615     0.618340     0.949881  Biso 1.000000     H
    H   1.0     0.126232     0.971157     0.561608  Biso 1.000000     H
    H   1.0     0.619947     0.971156     0.561608  Biso 1.000000     H
    H   1.0     0.225709     0.403786     0.061160  Biso 1.000000     H
    H   1.0     0.719426     0.403786     0.061160  Biso 1.000000     H
    H   1.0     0.179456     0.359121     0.638158  Biso 1.000000     H
    H   1.0     0.673173     0.359123     0.638158  Biso 1.000000     H
    H   1.0     0.225214     0.636586     0.655880  Biso 1.000000     H
    H   1.0     0.718935     0.636586     0.655882  Biso 1.000000     H
    H   1.0     0.050591     0.701863     0.107461  Biso 1.000000     H
    H   1.0     0.544305     0.701864     0.107461  Biso 1.000000     H
    H   1.0     0.383681     0.981940     0.828356  Biso 1.000000     H
    H   1.0     0.877401     0.981936     0.828355  Biso 1.000000     H
    H   1.0     0.443772     0.458437     0.885800  Biso 1.000000     H
    H   1.0     0.937488     0.458437     0.885799  Biso 1.000000     H
    H   1.0     0.264152     0.551118     0.311162  Biso 1.000000     H
    H   1.0     0.757868     0.551118     0.311162  Biso 1.000000     H
    H   1.0     0.181619     0.341560     0.974936  Biso 1.000000     H
    H   1.0     0.675337     0.341560     0.974935  Biso 1.000000     H
    H   1.0     0.149449     0.054128     0.291954  Biso 1.000000     H
    H   1.0     0.643165     0.054129     0.291954  Biso 1.000000     H
    H   1.0     0.181649     0.680635     0.036094  Biso 1.000000     H
    H   1.0     0.675358     0.680636     0.036095  Biso 1.000000     H
    C   1.0     0.496138     0.252946     0.825996  Biso 1.000000     C
    C   1.0     0.989852     0.252945     0.825996  Biso 1.000000     C
    C   1.0     0.249480     0.785589     0.067643  Biso 1.000000     C
    C   1.0     0.743194     0.785588     0.067644  Biso 1.000000     C
    C   1.0     0.095911     0.495586     0.218720  Biso 1.000000     C
    C   1.0     0.589627     0.495586     0.218720  Biso 1.000000     C
    C   1.0     0.181295     0.581069     0.299505  Biso 1.000000     C
    C   1.0     0.675012     0.581069     0.299505  Biso 1.000000     C
    C   1.0     0.191581     0.161662     0.852231  Biso 1.000000     C
    C   1.0     0.685295     0.161660     0.852232  Biso 1.000000     C
    C   1.0     0.310750     0.953434     0.803847  Biso 1.000000     C
    C   1.0     0.804468     0.953432     0.803845  Biso 1.000000     C
    C   1.0     0.156479     0.449889     0.780947  Biso 1.000000     C
    C   1.0     0.650195     0.449888     0.780947  Biso 1.000000     C
    C   1.0    -0.003381     0.765067     0.689904  Biso 1.000000     C
    C   1.0     0.490331     0.765065     0.689905  Biso 1.000000     C
    C   1.0     0.246528     0.296377     0.982273  Biso 1.000000     C
    C   1.0     0.740245     0.296376     0.982273  Biso 1.000000     C
    C   1.0     0.260009     0.577717     0.131610  Biso 1.000000     C
    C   1.0     0.753724     0.577717     0.131610  Biso 1.000000     C
    C   1.0     0.118703     0.887015     0.387658  Biso 1.000000     C
    C   1.0     0.612419     0.887015     0.387659  Biso 1.000000     C
    C   1.0     0.170485     0.223867     0.891187  Biso 1.000000     C
    C   1.0     0.664200     0.223866     0.891188  Biso 1.000000     C
    C   1.0     0.246484     0.213081     0.476822  Biso 1.000000     C
    C   1.0     0.740199     0.213081     0.476822  Biso 1.000000     C
    C   1.0     0.170509     0.798352     0.119810  Biso 1.000000     C
    C   1.0     0.664224     0.798352     0.119811  Biso 1.000000     C
    C   1.0     0.496084     0.769304     0.184966  Biso 1.000000     C
    C   1.0     0.989802     0.769303     0.184966  Biso 1.000000     C
    C   1.0     0.095603     0.526711     0.792230  Biso 1.000000     C
    C   1.0     0.589318     0.526710     0.792230  Biso 1.000000     C
    C   1.0     0.301412     0.655650     0.944186  Biso 1.000000     C
    C   1.0     0.795116     0.655650     0.944186  Biso 1.000000     C
    C   1.0     0.335551     0.962083     0.734384  Biso 1.000000     C
    C   1.0     0.829269     0.962084     0.734383  Biso 1.000000     C
    C   1.0     0.118044     0.147880     0.802252  Biso 1.000000     C
    C   1.0     0.611759     0.147878     0.802253  Biso 1.000000     C
    C   1.0     0.196486     0.196575     0.199438  Biso 1.000000     C
    C   1.0     0.690201     0.196575     0.199438  Biso 1.000000     C
    C   1.0     0.326437     0.309139     0.023665  Biso 1.000000     C
    C   1.0     0.820154     0.309139     0.023665  Biso 1.000000     C
    C   1.0     0.243071     0.749217     0.572801  Biso 1.000000     C
    C   1.0     0.736788     0.749216     0.572803  Biso 1.000000     C
    C   1.0     0.259727     0.444559     0.879370  Biso 1.000000     C
    C   1.0     0.753443     0.444559     0.879370  Biso 1.000000     C
    C   1.0     0.374074     0.375196     0.118376  Biso 1.000000     C
    C   1.0     0.867790     0.375196     0.118376  Biso 1.000000     C
    C   1.0     0.306552     0.871508     0.826615  Biso 1.000000     C
    C   1.0     0.800269     0.871506     0.826611  Biso 1.000000     C
    C   1.0     0.420529     0.782402     0.639327  Biso 1.000000     C
    C   1.0     0.914247     0.782404     0.639327  Biso 1.000000     C
    C   1.0     0.249403     0.236594     0.943376  Biso 1.000000     C
    C   1.0     0.743118     0.236593     0.943377  Biso 1.000000     C
    C   1.0     0.336429     0.060175     0.276692  Biso 1.000000     C
    C   1.0     0.830144     0.060175     0.276692  Biso 1.000000     C
    C   1.0     0.296491     0.708624     0.307243  Biso 1.000000     C
    C   1.0     0.790207     0.708624     0.307243  Biso 1.000000     C
    C   1.0     0.185320     0.359153     0.688883  Biso 1.000000     C
    C   1.0     0.679037     0.359154     0.688883  Biso 1.000000     C
    C   1.0     0.181034     0.441132     0.711482  Biso 1.000000     C
    C   1.0     0.674750     0.441132     0.711482  Biso 1.000000     C
    C   1.0     0.064745     0.775746     0.470971  Biso 1.000000     C
    C   1.0     0.558462     0.775745     0.470971  Biso 1.000000     C
    C   1.0     0.185451     0.663013     0.322183  Biso 1.000000     C
    C   1.0     0.679167     0.663013     0.322183  Biso 1.000000     C
    C   1.0     0.374826     0.362191     0.297323  Biso 1.000000     C
    C   1.0     0.868542     0.362191     0.297323  Biso 1.000000     C
    C   1.0     0.490553     0.233913     0.591926  Biso 1.000000     C
    C   1.0     0.984267     0.233912     0.591925  Biso 1.000000     C
    C   1.0     0.118839     0.135233     0.623269  Biso 1.000000     C
    C   1.0     0.612554     0.135232     0.623269  Biso 1.000000     C
    C   1.0     0.166766     0.201898     0.528948  Biso 1.000000     C
    C   1.0     0.660482     0.201898     0.528948  Biso 1.000000     C
    C   1.0     0.195592     0.825815     0.811639  Biso 1.000000     C
    C   1.0     0.689311     0.825811     0.811633  Biso 1.000000     C
    C   1.0     0.001585     0.745393     0.924233  Biso 1.000000     C
    C   1.0     0.495305     0.745399     0.924231  Biso 1.000000     C
    C   1.0     0.322478     0.286103     0.386154  Biso 1.000000     C
    C   1.0     0.816194     0.286103     0.386155  Biso 1.000000     C
    C   1.0     0.301236     0.348313     0.347246  Biso 1.000000     C
    C   1.0     0.794952     0.348313     0.347246  Biso 1.000000     C
    C   1.0     0.246603     0.725792     0.028757  Biso 1.000000     C
    C   1.0     0.740314     0.725791     0.028758  Biso 1.000000     C
    C   1.0     0.072214     0.270186     0.876626  Biso 1.000000     C
    C   1.0     0.565931     0.270186     0.876626  Biso 1.000000     C
    C   1.0     0.307612     0.150983     0.184604  Biso 1.000000     C
    C   1.0     0.801328     0.150983     0.184604  Biso 1.000000     C
    C   1.0     0.397037     0.014593     0.723073  Biso 1.000000     C
    C   1.0     0.890753     0.014594     0.723072  Biso 1.000000     C
    C   1.0     0.156752     0.572406     0.230030  Biso 1.000000     C
    C   1.0     0.650468     0.572405     0.230030  Biso 1.000000     C
    C   1.0     0.325656     0.712976     0.987380  Biso 1.000000     C
    C   1.0     0.819365     0.712974     0.987381  Biso 1.000000     C
    C   1.0     0.311831     0.069002     0.207229  Biso 1.000000     C
    C   1.0     0.805547     0.069002     0.207229  Biso 1.000000     C
    C   1.0     0.072225     0.752040     0.134364  Biso 1.000000     C
    C   1.0     0.565939     0.752041     0.134364  Biso 1.000000     C
    C   1.0     0.190942     0.144302     0.571892  Biso 1.000000     C
    C   1.0     0.684657     0.144301     0.571892  Biso 1.000000     C
    C   1.0     0.490308     0.788400     0.419025  Biso 1.000000     C
    C   1.0     0.984023     0.788401     0.419025  Biso 1.000000     C
    C   1.0     0.191527     0.860593     0.158742  Biso 1.000000     C
    C   1.0     0.685243     0.860593     0.158743  Biso 1.000000     C
    C   1.0     0.246160     0.809228     0.534169  Biso 1.000000     C
    C   1.0     0.739877     0.809228     0.534170  Biso 1.000000     C
    C   1.0     0.374259     0.660178     0.713737  Biso 1.000000     C
    C   1.0     0.867982     0.660179     0.713737  Biso 1.000000     C
    C   1.0     0.117920     0.874404     0.208690  Biso 1.000000     C
    C   1.0     0.611636     0.874404     0.208691  Biso 1.000000     C
    C   1.0     0.427303     0.757748     0.976311  Biso 1.000000     C
    C   1.0     0.921016     0.757744     0.976312  Biso 1.000000     C
    C   1.0     0.373318     0.646894     0.892672  Biso 1.000000     C
    C   1.0     0.867021     0.646893     0.892672  Biso 1.000000     C
    C   1.0     0.420953     0.239920     0.371704  Biso 1.000000     C
    C   1.0     0.914669     0.239920     0.371704  Biso 1.000000     C
    C   1.0     0.243448     0.273106     0.438200  Biso 1.000000     C
    C   1.0     0.737164     0.273106     0.438200  Biso 1.000000     C
    C   1.0     0.190757     0.877957     0.439055  Biso 1.000000     C
    C   1.0     0.684473     0.877957     0.439056  Biso 1.000000     C
    C   1.0     0.233132     0.065085     0.375124  Biso 1.000000     C
    C   1.0     0.726847     0.065085     0.375124  Biso 1.000000     C
    C   1.0     0.322031     0.736239     0.624876  Biso 1.000000     C
    C   1.0     0.815751     0.736239     0.624877  Biso 1.000000     C
    C   1.0    -0.002907     0.257267     0.321148  Biso 1.000000     C
    C   1.0     0.490809     0.257267     0.321148  Biso 1.000000     C
    C   1.0     0.396649     0.000000     0.287918  Biso 1.000000     C
    C   1.0     0.890365     0.000000     0.287919  Biso 1.000000     C
    C   1.0     0.300711     0.674056     0.663799  Biso 1.000000     C
    C   1.0     0.794432     0.674056     0.663800  Biso 1.000000     C
    C   1.0     0.232379     0.957129     0.635896  Biso 1.000000     C
    C   1.0     0.726094     0.957129     0.635895  Biso 1.000000     C
    C   1.0     0.296471     0.313617     0.703765  Biso 1.000000     C
    C   1.0     0.790187     0.313618     0.703764  Biso 1.000000     C
    C   1.0     0.428028     0.264317     0.034749  Biso 1.000000     C
    C   1.0     0.921743     0.264316     0.034749  Biso 1.000000     C
    C   1.0     0.302187     0.366460     0.066859  Biso 1.000000     C
    C   1.0     0.795903     0.366459     0.066859  Biso 1.000000     C
    C   1.0     0.166506     0.820395     0.482017  Biso 1.000000     C
    C   1.0     0.660223     0.820394     0.482017  Biso 1.000000     C
    C   1.0     0.065037     0.246577     0.539996  Biso 1.000000     C
    C   1.0     0.558754     0.246578     0.539997  Biso 1.000000     C
    C   1.0     0.002292     0.276640     0.086839  Biso 1.000000     C
    C   1.0     0.496008     0.276641     0.086839  Biso 1.000000     C
    N   1.0     0.123322     0.954743     0.606403  Biso 1.000000     N
    N   1.0     0.617037     0.954742     0.606402  Biso 1.000000     N
    N   1.0     0.023807     0.192479     0.789075  Biso 1.000000     N
    N   1.0     0.517523     0.192478     0.789075  Biso 1.000000     N
    N   1.0     0.228095     0.070113     0.312323  Biso 1.000000     N
    N   1.0     0.721811     0.070113     0.312323  Biso 1.000000     N
    N   1.0     0.368759     0.442027     0.908895  Biso 1.000000     N
    N   1.0     0.862475     0.442027     0.908895  Biso 1.000000     N
    N   1.0     0.265093     0.582430     0.194419  Biso 1.000000     N
    N   1.0     0.758809     0.582429     0.194419  Biso 1.000000     N
    N   1.0     0.022610     0.842971     0.377359  Biso 1.000000     N
    N   1.0     0.516326     0.842970     0.377360  Biso 1.000000     N
    N   1.0     0.470072     0.331046     0.128670  Biso 1.000000     N
    N   1.0     0.963788     0.331045     0.128670  Biso 1.000000     N
    N   1.0     0.264820     0.439893     0.816560  Biso 1.000000     N
    N   1.0     0.758535     0.439893     0.816560  Biso 1.000000     N
    N   1.0     0.469211     0.317701     0.284231  Biso 1.000000     N
    N   1.0     0.962927     0.317701     0.284231  Biso 1.000000     N
    N   1.0     0.023686     0.829801     0.221864  Biso 1.000000     N
    N   1.0     0.517402     0.829801     0.221865  Biso 1.000000     N
    N   1.0     0.124079     0.067442     0.404615  Biso 1.000000     N
    N   1.0     0.617795     0.067442     0.404615  Biso 1.000000     N
    N   1.0     0.022779     0.179306     0.633571  Biso 1.000000     N
    N   1.0     0.516496     0.179306     0.633571  Biso 1.000000     N
    N   1.0     0.469356     0.691020     0.882379  Biso 1.000000     N
    N   1.0     0.963063     0.691016     0.882379  Biso 1.000000     N
    N   1.0     0.369044     0.580223     0.102090  Biso 1.000000     N
    N   1.0     0.862760     0.580222     0.102090  Biso 1.000000     N
    N   1.0     0.227298     0.952059     0.698697  Biso 1.000000     N
    N   1.0     0.721014     0.952060     0.698696  Biso 1.000000     N
    N   1.0     0.468662     0.704648     0.726826  Biso 1.000000     N
    N   1.0     0.962385     0.704649     0.726826  Biso 1.000000     N
    O   1.0     0.164012     0.446407     0.908626  Biso 1.000000     O
    O   1.0     0.657727     0.446407     0.908626  Biso 1.000000     O
    O   1.0     0.328817     0.063105     0.404404  Biso 1.000000     O
    O   1.0     0.822533     0.063105     0.404404  Biso 1.000000     O
    O   1.0     0.477986     0.529463     0.795327  Biso 1.000000     O
    O   1.0     0.971702     0.529464     0.795327  Biso 1.000000     O
    O   1.0     0.214280     0.269858     0.199444  Biso 1.000000     O
    O   1.0     0.707996     0.269858     0.199444  Biso 1.000000     O
    O   1.0     0.014652     0.017372     0.719928  Biso 1.000000     O
    O   1.0     0.508367     0.017370     0.719928  Biso 1.000000     O
    O   1.0     0.164358     0.436951     0.215709  Biso 1.000000     O
    O   1.0     0.658074     0.436951     0.215708  Biso 1.000000     O
    O   1.0     0.014267     0.000000     0.291039  Biso 1.000000     O
    O   1.0     0.507983     0.000000     0.291039  Biso 1.000000     O
    O   1.0     0.097164     0.856511     0.803444  Biso 1.000000     O
    O   1.0     0.590883     0.856507     0.803435  Biso 1.000000     O
    O   1.0     0.278700     0.240335     0.703842  Biso 1.000000     O
    O   1.0     0.772415     0.240335     0.703842  Biso 1.000000     O
    O   1.0     0.164004     0.585371     0.795255  Biso 1.000000     O
    O   1.0     0.657720     0.585370     0.795255  Biso 1.000000     O
    O   1.0     0.328064     0.959174     0.606616  Biso 1.000000     O
    O   1.0     0.821780     0.959174     0.606616  Biso 1.000000     O
    O   1.0     0.394883     0.344413     0.711800  Biso 1.000000     O
    O   1.0     0.888599     0.344413     0.711801  Biso 1.000000     O
    O   1.0     0.098075     0.165813     0.207548  Biso 1.000000     O
    O   1.0     0.591790     0.165813     0.207548  Biso 1.000000     O
    O   1.0     0.328589     0.073229     0.720083  Biso 1.000000     O
    O   1.0     0.822305     0.073230     0.720083  Biso 1.000000     O
    O   1.0     0.478293     0.492815     0.215628  Biso 1.000000     O
    O   1.0     0.972009     0.492815     0.215629  Biso 1.000000     O
    O   1.0     0.278596     0.781891     0.307119  Biso 1.000000     O
    O   1.0     0.772311     0.781891     0.307119  Biso 1.000000     O
    O   1.0     0.164296     0.575856     0.102352  Biso 1.000000     O
    O   1.0     0.658011     0.575856     0.102352  Biso 1.000000     O
    O   1.0     0.213533     0.752547     0.811567  Biso 1.000000     O
    O   1.0     0.707258     0.752544     0.811553  Biso 1.000000     O
    O   1.0     0.394933     0.677882     0.299166  Biso 1.000000     O
    O   1.0     0.888649     0.677882     0.299166  Biso 1.000000     O
    O   1.0     0.328236     0.948995     0.290879  Biso 1.000000     O
    O   1.0     0.821951     0.948995     0.290879  Biso 1.000000     O
   Zn   1.0     0.077515     0.338554     0.207722  Biso 1.000000    Zn
   Zn   1.0     0.571230     0.338554     0.207722  Biso 1.000000    Zn
   Zn   1.0     0.415258     0.850600     0.298597  Biso 1.000000    Zn
   Zn   1.0     0.908974     0.850600     0.298596  Biso 1.000000    Zn
   Zn   1.0     0.076956     0.683702     0.803291  Biso 1.000000    Zn
   Zn   1.0     0.570673     0.683702     0.803289  Biso 1.000000    Zn
   Zn   1.0     0.415439     0.171674     0.712331  Biso 1.000000    Zn
   Zn   1.0     0.909154     0.171675     0.712331  Biso 1.000000    Zn
