#======================================================================

# CRYSTAL DATA

#----------------------------------------------------------------------

data_VESTA_phase_1


_pd_phase_name                         MOF
_cell_length_a                         14.12400
_cell_length_b                         14.14000
_cell_length_c                         14.12200
_cell_angle_alpha                      104.88600
_cell_angle_beta                       104.72200
_cell_angle_gamma                      104.84100
_symmetry_space_group_name_H-M         "P 1"
_symmetry_Int_Tables_number            1

loop_
_symmetry_equiv_pos_as_xyz
   "x, y, z"

loop_
   _atom_site_label
   _atom_site_occupancy
   _atom_site_fract_x
   _atom_site_fract_y
   _atom_site_fract_z
   _atom_site_adp_type
   _atom_site_B_iso_or_equiv
   _atom_site_type_symbol
    H   1.0     0.469057     0.362158     0.707253  Biso 1.000000     H
    H   1.0     0.893257     0.178304     0.425486  Biso 1.000000     H
    H   1.0     0.028729     0.236308     0.492286  Biso 1.000000     H
    H   1.0     0.745616     0.824417     0.254321  Biso 1.000000     H
    H   1.0     0.397877     0.190923     0.478079  Biso 1.000000     H
    H   1.0     0.707016     0.469375     0.362532  Biso 1.000000     H
    H   1.0     0.425547     0.893489     0.178461  Biso 1.000000     H
    H   1.0     0.492364     0.028914     0.236432  Biso 1.000000     H
    H   1.0     0.254253     0.745615     0.824206  Biso 1.000000     H
    H   1.0     0.478235     0.398082     0.190375  Biso 1.000000     H
    H   1.0     0.362266     0.707058     0.468919  Biso 1.000000     H
    H   1.0     0.178636     0.425505     0.893204  Biso 1.000000     H
    H   1.0     0.236488     0.492301     0.028786  Biso 1.000000     H
    H   1.0     0.824462     0.254515     0.745550  Biso 1.000000     H
    H   1.0     0.190330     0.478092     0.398043  Biso 1.000000     H
    H   1.0     0.637558     0.530889     0.292964  Biso 1.000000     H
    H   1.0     0.821547     0.106550     0.574434  Biso 1.000000     H
    H   1.0     0.763602     0.971102     0.507686  Biso 1.000000     H
    H   1.0     0.175680     0.254390     0.745621  Biso 1.000000     H
    H   1.0     0.809762     0.601991     0.521819  Biso 1.000000     H
    H   1.0     0.530890     0.292843     0.637655  Biso 1.000000     H
    H   1.0     0.106757     0.574503     0.821222  Biso 1.000000     H
    H   1.0     0.971247     0.507708     0.763341  Biso 1.000000     H
    H   1.0     0.254352     0.745514     0.175557  Biso 1.000000     H
    H   1.0     0.601926     0.521899     0.809515  Biso 1.000000     H
    H   1.0     0.292830     0.637824     0.530858  Biso 1.000000     H
    H   1.0     0.574495     0.821800     0.106710  Biso 1.000000     H
    H   1.0     0.507623     0.763803     0.971189  Biso 1.000000     H
    H   1.0     0.745749     0.175646     0.254456  Biso 1.000000     H
    H   1.0     0.521858     0.809073     0.602048  Biso 1.000000     H
    H   1.0     0.530934     0.637861     0.292714  Biso 1.000000     H
    H   1.0     0.106735     0.821714     0.574481  Biso 1.000000     H
    H   1.0     0.971262     0.763710     0.507681  Biso 1.000000     H
    H   1.0     0.254376     0.175601     0.745647  Biso 1.000000     H
    H   1.0     0.602114     0.809094     0.521888  Biso 1.000000     H
    H   1.0     0.292974     0.530642     0.637433  Biso 1.000000     H
    H   1.0     0.574445     0.106529     0.821506  Biso 1.000000     H
    H   1.0     0.507627     0.971104     0.763535  Biso 1.000000     H
    H   1.0     0.745738     0.254403     0.175761  Biso 1.000000     H
    H   1.0     0.521756     0.601935     0.809591  Biso 1.000000     H
    H   1.0     0.637726     0.292960     0.531050  Biso 1.000000     H
    H   1.0     0.821356     0.574513     0.106763  Biso 1.000000     H
    H   1.0     0.763504     0.507717     0.971181  Biso 1.000000     H
    H   1.0     0.175530     0.745504     0.254417  Biso 1.000000     H
    H   1.0     0.809661     0.521925     0.601923  Biso 1.000000     H
    H   1.0     0.362434     0.469130     0.707003  Biso 1.000000     H
    H   1.0     0.178444     0.893468     0.425534  Biso 1.000000     H
    H   1.0     0.236389     0.028916     0.492282  Biso 1.000000     H
    H   1.0     0.824312     0.745628     0.254346  Biso 1.000000     H
    H   1.0     0.190230     0.398027     0.478147  Biso 1.000000     H
    H   1.0     0.469103     0.707175     0.362315  Biso 1.000000     H
    H   1.0     0.893235     0.425516     0.178745  Biso 1.000000     H
    H   1.0     0.028745     0.492310     0.236626  Biso 1.000000     H
    H   1.0     0.745640     0.254504     0.824410  Biso 1.000000     H
    H   1.0     0.398066     0.478118     0.190452  Biso 1.000000     H
    H   1.0     0.707160     0.362192     0.469108  Biso 1.000000     H
    H   1.0     0.425497     0.178217     0.893258  Biso 1.000000     H
    H   1.0     0.492369     0.236214     0.028778  Biso 1.000000     H
    H   1.0     0.254243     0.824372     0.745512  Biso 1.000000     H
    H   1.0     0.478133     0.190944     0.397919  Biso 1.000000     H
    C   1.0     0.408560     0.198054     0.673816  Biso 1.000000     C
    C   1.0     0.976479     0.080335     0.405172  Biso 1.000000     C
    C   1.0     0.673963     0.408645     0.198279  Biso 1.000000     C
    C   1.0     0.405262     0.976540     0.080412  Biso 1.000000     C
    C   1.0     0.198030     0.673868     0.408691  Biso 1.000000     C
    C   1.0     0.080460     0.405279     0.976448  Biso 1.000000     C
    C   1.0     0.801785     0.591392     0.326090  Biso 1.000000     C
    C   1.0     0.919593     0.023481     0.594745  Biso 1.000000     C
    C   1.0     0.591321     0.326087     0.801895  Biso 1.000000     C
    C   1.0     0.023537     0.594744     0.919452  Biso 1.000000     C
    C   1.0     0.326168     0.801946     0.591370  Biso 1.000000     C
    C   1.0     0.594770     0.919725     0.023487  Biso 1.000000     C
    C   1.0     0.591431     0.801963     0.326152  Biso 1.000000     C
    C   1.0     0.023512     0.919683     0.594797  Biso 1.000000     C
    C   1.0     0.326028     0.591372     0.801688  Biso 1.000000     C
    C   1.0     0.594729     0.023477     0.919555  Biso 1.000000     C
    C   1.0     0.801962     0.326150     0.591278  Biso 1.000000     C
    C   1.0     0.919532     0.594739     0.023520  Biso 1.000000     C
    C   1.0     0.198206     0.408626     0.673877  Biso 1.000000     C
    C   1.0     0.080398     0.976537     0.405222  Biso 1.000000     C
    C   1.0     0.408672     0.673930     0.198071  Biso 1.000000     C
    C   1.0     0.976454     0.405275     0.080515  Biso 1.000000     C
    C   1.0     0.673823     0.198073     0.408596  Biso 1.000000     C
    C   1.0     0.405222     0.080292     0.976480  Biso 1.000000     C
    C   1.0     0.902720     0.902704     0.320299  Biso 1.000000     C
    C   1.0     0.320252     0.902691     0.902669  Biso 1.000000     C
    C   1.0     0.902750     0.320426     0.902712  Biso 1.000000     C
    C   1.0     0.097271     0.097314     0.679669  Biso 1.000000     C
    C   1.0     0.097242     0.679592     0.097255  Biso 1.000000     C
    C   1.0     0.679740     0.097327     0.097298  Biso 1.000000     C
    C   1.0     0.499969     0.297757     0.702177  Biso 1.000000     C
    C   1.0     0.702057     0.500088     0.297984  Biso 1.000000     C
    C   1.0     0.297822     0.702189     0.499932  Biso 1.000000     C
    C   1.0     0.500021     0.702261     0.297792  Biso 1.000000     C
    C   1.0     0.297934     0.499930     0.701982  Biso 1.000000     C
    C   1.0     0.702169     0.297828     0.500036  Biso 1.000000     C
    C   1.0     0.388399     0.284954     0.388402  Biso 1.000000     C
    C   1.0     0.388439     0.388543     0.284593  Biso 1.000000     C
    C   1.0     0.284508     0.388509     0.388404  Biso 1.000000     C
    C   1.0     0.715484     0.611508     0.611562  Biso 1.000000     C
    C   1.0     0.611552     0.611473     0.715373  Biso 1.000000     C
    C   1.0     0.611592     0.715063     0.611564  Biso 1.000000     C
    N   1.0     0.889355     0.996353     0.347465  Biso 1.000000     N
    N   1.0     0.966577     0.174104     0.436340  Biso 1.000000     N
    N   1.0     0.347553     0.889380     0.996355  Biso 1.000000     N
    N   1.0     0.436441     0.966737     0.174236  Biso 1.000000     N
    N   1.0     0.996458     0.347672     0.889274  Biso 1.000000     N
    N   1.0     0.174320     0.436400     0.966543  Biso 1.000000     N
    N   1.0     0.003605     0.110647     0.652369  Biso 1.000000     N
    N   1.0     0.825782     0.033299     0.563588  Biso 1.000000     N
    N   1.0     0.110670     0.652373     0.003501  Biso 1.000000     N
    N   1.0     0.033443     0.563608     0.825552  Biso 1.000000     N
    N   1.0     0.652543     0.003703     0.110645  Biso 1.000000     N
    N   1.0     0.563591     0.825981     0.033369  Biso 1.000000     N
    N   1.0     0.110636     0.003665     0.652501  Biso 1.000000     N
    N   1.0     0.033415     0.825914     0.563627  Biso 1.000000     N
    N   1.0     0.652438     0.110638     0.003612  Biso 1.000000     N
    N   1.0     0.563550     0.033281     0.825731  Biso 1.000000     N
    N   1.0     0.003534     0.652346     0.110694  Biso 1.000000     N
    N   1.0     0.825672     0.563617     0.033424  Biso 1.000000     N
    N   1.0     0.996387     0.889371     0.347598  Biso 1.000000     N
    N   1.0     0.174210     0.966719     0.436379  Biso 1.000000     N
    N   1.0     0.889322     0.347644     0.996466  Biso 1.000000     N
    N   1.0     0.966550     0.436410     0.174415  Biso 1.000000     N
    N   1.0     0.347448     0.996315     0.889323  Biso 1.000000     N
    N   1.0     0.436400     0.174036     0.966598  Biso 1.000000     N
    N   1.0     0.074059     0.074046     0.433066  Biso 1.000000     N
    N   1.0     0.818027     0.818023     0.262932  Biso 1.000000     N
    N   1.0     0.317592     0.317931     0.424863  Biso 1.000000     N
    N   1.0     0.433170     0.074023     0.074091  Biso 1.000000     N
    N   1.0     0.262847     0.818008     0.817942  Biso 1.000000     N
    N   1.0     0.424945     0.317996     0.317692  Biso 1.000000     N
    N   1.0     0.074069     0.433119     0.074121  Biso 1.000000     N
    N   1.0     0.818076     0.263039     0.818009  Biso 1.000000     N
    N   1.0     0.317647     0.424918     0.317679  Biso 1.000000     N
    N   1.0     0.925932     0.925972     0.566901  Biso 1.000000     N
    N   1.0     0.181965     0.181995     0.737035  Biso 1.000000     N
    N   1.0     0.682400     0.682086     0.575104  Biso 1.000000     N
    N   1.0     0.925923     0.566898     0.925846  Biso 1.000000     N
    N   1.0     0.181916     0.736977     0.181959  Biso 1.000000     N
    N   1.0     0.682345     0.575100     0.682289  Biso 1.000000     N
    N   1.0     0.566822     0.925994     0.925876  Biso 1.000000     N
    N   1.0     0.737144     0.182010     0.182026  Biso 1.000000     N
    N   1.0     0.575047     0.682022     0.682276  Biso 1.000000     N
    N   1.0     0.423245     0.216612     0.423239  Biso 1.000000     N
    N   1.0     0.423312     0.423312     0.216074  Biso 1.000000     N
    N   1.0     0.215944     0.423260     0.423247  Biso 1.000000     N
    N   1.0     0.784049     0.576759     0.576720  Biso 1.000000     N
    N   1.0     0.576682     0.576707     0.783895  Biso 1.000000     N
    N   1.0     0.576748     0.783407     0.576729  Biso 1.000000     N
    O   1.0     0.356798     0.148401     0.577230  Biso 1.000000     O
    O   1.0     0.386425     0.173780     0.748305  Biso 1.000000     O
    O   1.0     0.577468     0.357004     0.148221  Biso 1.000000     O
    O   1.0     0.748590     0.386389     0.174400  Biso 1.000000     O
    O   1.0     0.148137     0.577340     0.357105  Biso 1.000000     O
    O   1.0     0.173953     0.748305     0.386536  Biso 1.000000     O
    O   1.0     0.851894     0.643001     0.422624  Biso 1.000000     O
    O   1.0     0.825653     0.613606     0.251451  Biso 1.000000     O
    O   1.0     0.642951     0.422619     0.851719  Biso 1.000000     O
    O   1.0     0.613478     0.251660     0.825988  Biso 1.000000     O
    O   1.0     0.422714     0.851613     0.643115  Biso 1.000000     O
    O   1.0     0.251687     0.826224     0.613546  Biso 1.000000     O
    O   1.0     0.643195     0.851616     0.422737  Biso 1.000000     O
    O   1.0     0.613566     0.826236     0.251662  Biso 1.000000     O
    O   1.0     0.422524     0.643013     0.851746  Biso 1.000000     O
    O   1.0     0.251401     0.613628     0.825567  Biso 1.000000     O
    O   1.0     0.851855     0.422679     0.642861  Biso 1.000000     O
    O   1.0     0.826040     0.251714     0.613432  Biso 1.000000     O
    O   1.0     0.148097     0.357016     0.577343  Biso 1.000000     O
    O   1.0     0.174339     0.386412     0.748517  Biso 1.000000     O
    O   1.0     0.357041     0.577398     0.148248  Biso 1.000000     O
    O   1.0     0.386513     0.748358     0.173978  Biso 1.000000     O
    O   1.0     0.577277     0.148405     0.356852  Biso 1.000000     O
    O   1.0     0.748304     0.173794     0.386421  Biso 1.000000     O
   Ag   1.0     0.212649     0.212804     0.478263  Biso 1.000000    Ag
   Ag   1.0     0.478516     0.212891     0.212758  Biso 1.000000    Ag
   Ag   1.0     0.212709     0.478224     0.212725  Biso 1.000000    Ag
   Ag   1.0     0.787342     0.787214     0.521704  Biso 1.000000    Ag
   Ag   1.0     0.787283     0.521793     0.787242  Biso 1.000000    Ag
   Ag   1.0     0.521475     0.787126     0.787209  Biso 1.000000    Ag
   Ag   1.0     0.724441    -0.000027     0.275539  Biso 1.000000    Ag
   Ag   1.0     0.275839     0.724398     0.000003  Biso 1.000000    Ag
   Ag   1.0     0.000022     0.275747     0.723999  Biso 1.000000    Ag
   Ag   1.0     0.275549     0.000028     0.724428  Biso 1.000000    Ag
   Ag   1.0     0.724146     0.275620    -0.000003  Biso 1.000000    Ag
   Ag   1.0    -0.000013     0.724272     0.275968  Biso 1.000000    Ag
