#======================================================================

# CRYSTAL DATA

#----------------------------------------------------------------------

data_VESTA_phase_1


_pd_phase_name                         MOF
_cell_length_a                         14.13100
_cell_length_b                         14.13000
_cell_length_c                         14.13300
_cell_angle_alpha                      104.81100
_cell_angle_beta                       104.76000
_cell_angle_gamma                      104.83300
_symmetry_space_group_name_H-M         "P 1"
_symmetry_Int_Tables_number            1

loop_
_symmetry_equiv_pos_as_xyz
   "x, y, z"

loop_
   _atom_site_label
   _atom_site_occupancy
   _atom_site_fract_x
   _atom_site_fract_y
   _atom_site_fract_z
   _atom_site_adp_type
   _atom_site_B_iso_or_equiv
   _atom_site_type_symbol
    H   1.0     0.530658     0.637872     0.292606  Biso 1.000000     H
    H   1.0     0.821479     0.106485     0.574376  Biso 1.000000     H
    H   1.0     0.763608     0.971011     0.507594  Biso 1.000000     H
    H   1.0     0.809485     0.601982     0.521887  Biso 1.000000     H
    H   1.0     0.175378     0.254198     0.744856  Biso 1.000000     H
    H   1.0     0.292710     0.530957     0.638024  Biso 1.000000     H
    H   1.0     0.574378     0.821255     0.106442  Biso 1.000000     H
    H   1.0     0.507676     0.763369     0.971098  Biso 1.000000     H
    H   1.0     0.521823     0.809249     0.601960  Biso 1.000000     H
    H   1.0     0.744769     0.175359     0.254089  Biso 1.000000     H
    H   1.0     0.638041     0.292442     0.531017  Biso 1.000000     H
    H   1.0     0.106504     0.574397     0.821406  Biso 1.000000     H
    H   1.0     0.971074     0.507773     0.763535  Biso 1.000000     H
    H   1.0     0.602088     0.521969     0.809563  Biso 1.000000     H
    H   1.0     0.254127     0.744492     0.175276  Biso 1.000000     H
    H   1.0     0.362101     0.469135     0.707366  Biso 1.000000     H
    H   1.0     0.893539     0.178656     0.425638  Biso 1.000000     H
    H   1.0     0.028933     0.236541     0.492420  Biso 1.000000     H
    H   1.0     0.398079     0.190736     0.478230  Biso 1.000000     H
    H   1.0     0.745861     0.824583     0.255151  Biso 1.000000     H
    H   1.0     0.468894     0.707444     0.361900  Biso 1.000000     H
    H   1.0     0.178727     0.425600     0.893558  Biso 1.000000     H
    H   1.0     0.236596     0.492209     0.028926  Biso 1.000000     H
    H   1.0     0.190490     0.478018     0.397941  Biso 1.000000     H
    H   1.0     0.824726     0.255474     0.745938  Biso 1.000000     H
    H   1.0     0.707464     0.362092     0.469360  Biso 1.000000     H
    H   1.0     0.425628     0.893487     0.178506  Biso 1.000000     H
    H   1.0     0.492344     0.028974     0.236378  Biso 1.000000     H
    H   1.0     0.478092     0.397964     0.190493  Biso 1.000000     H
    H   1.0     0.255276     0.745792     0.824710  Biso 1.000000     H
    H   1.0     0.469355     0.362109     0.707430  Biso 1.000000     H
    H   1.0     0.178531     0.893490     0.425653  Biso 1.000000     H
    H   1.0     0.236401     0.028964     0.492434  Biso 1.000000     H
    H   1.0     0.190528     0.397995     0.478144  Biso 1.000000     H
    H   1.0     0.824633     0.745776     0.255173  Biso 1.000000     H
    H   1.0     0.707302     0.469010     0.362001  Biso 1.000000     H
    H   1.0     0.425632     0.178720     0.893587  Biso 1.000000     H
    H   1.0     0.492335     0.236607     0.028931  Biso 1.000000     H
    H   1.0     0.478189     0.190727     0.398071  Biso 1.000000     H
    H   1.0     0.255245     0.824616     0.745940  Biso 1.000000     H
    H   1.0     0.361973     0.707547     0.469005  Biso 1.000000     H
    H   1.0     0.893507     0.425578     0.178623  Biso 1.000000     H
    H   1.0     0.028937     0.492203     0.236495  Biso 1.000000     H
    H   1.0     0.397924     0.478006     0.190465  Biso 1.000000     H
    H   1.0     0.745884     0.255484     0.824754  Biso 1.000000     H
    H   1.0     0.637918     0.530841     0.292675  Biso 1.000000     H
    H   1.0     0.106472     0.821318     0.574391  Biso 1.000000     H
    H   1.0     0.971077     0.763433     0.507608  Biso 1.000000     H
    H   1.0     0.601933     0.809240     0.521801  Biso 1.000000     H
    H   1.0     0.254149     0.175391     0.744878  Biso 1.000000     H
    H   1.0     0.531111     0.292529     0.638125  Biso 1.000000     H
    H   1.0     0.821285     0.574374     0.106470  Biso 1.000000     H
    H   1.0     0.763416     0.507765     0.971102  Biso 1.000000     H
    H   1.0     0.809523     0.521959     0.602090  Biso 1.000000     H
    H   1.0     0.175285     0.744504     0.254091  Biso 1.000000     H
    H   1.0     0.292560     0.637884     0.530661  Biso 1.000000     H
    H   1.0     0.574384     0.106488     0.821523  Biso 1.000000     H
    H   1.0     0.507667     0.971001     0.763653  Biso 1.000000     H
    H   1.0     0.521919     0.602011     0.809536  Biso 1.000000     H
    H   1.0     0.744737     0.254183     0.175320  Biso 1.000000     H
    C   1.0     0.919469     0.023306     0.594607  Biso 1.000000     C
    C   1.0     0.591367     0.801982     0.325789  Biso 1.000000     C
    C   1.0     0.594641     0.919332     0.023306  Biso 1.000000     C
    C   1.0     0.325916     0.591336     0.802100  Biso 1.000000     C
    C   1.0     0.023322     0.594649     0.919451  Biso 1.000000     C
    C   1.0     0.802159     0.325878     0.591405  Biso 1.000000     C
    C   1.0     0.976690     0.080603     0.405405  Biso 1.000000     C
    C   1.0     0.197960     0.408673     0.674165  Biso 1.000000     C
    C   1.0     0.080641     0.405336     0.976714  Biso 1.000000     C
    C   1.0     0.408594     0.674049     0.197850  Biso 1.000000     C
    C   1.0     0.405381     0.976673     0.080527  Biso 1.000000     C
    C   1.0     0.674223     0.197975     0.408642  Biso 1.000000     C
    C   1.0     0.080541     0.976668     0.405421  Biso 1.000000     C
    C   1.0     0.408649     0.197991     0.674243  Biso 1.000000     C
    C   1.0     0.405371     0.080644     0.976723  Biso 1.000000     C
    C   1.0     0.674092     0.408632     0.197931  Biso 1.000000     C
    C   1.0     0.976690     0.405326     0.080579  Biso 1.000000     C
    C   1.0     0.197853     0.674099     0.408623  Biso 1.000000     C
    C   1.0     0.023321     0.919371     0.594623  Biso 1.000000     C
    C   1.0     0.802050     0.591308     0.325868  Biso 1.000000     C
    C   1.0     0.919370     0.594640     0.023315  Biso 1.000000     C
    C   1.0     0.591412     0.325923     0.802180  Biso 1.000000     C
    C   1.0     0.594631     0.023302     0.919502  Biso 1.000000     C
    C   1.0     0.325789     0.802001     0.591386  Biso 1.000000     C
    C   1.0     0.097064     0.097070     0.679231  Biso 1.000000     C
    C   1.0     0.679158     0.097053     0.097036  Biso 1.000000     C
    C   1.0     0.097031     0.678989     0.097030  Biso 1.000000     C
    C   1.0     0.902946     0.902904     0.320798  Biso 1.000000     C
    C   1.0     0.902980     0.320987     0.903000  Biso 1.000000     C
    C   1.0     0.320855     0.902922     0.902994  Biso 1.000000     C
    C   1.0     0.499870     0.702379     0.297495  Biso 1.000000     C
    C   1.0     0.297668     0.500018     0.702422  Biso 1.000000     C
    C   1.0     0.702509     0.297554     0.500120  Biso 1.000000     C
    C   1.0     0.500139     0.297600     0.702533  Biso 1.000000     C
    C   1.0     0.702348     0.499954     0.297606  Biso 1.000000     C
    C   1.0     0.297506     0.702425     0.499906  Biso 1.000000     C
    C   1.0     0.715558     0.611765     0.611794  Biso 1.000000     C
    C   1.0     0.611727     0.715388     0.611725  Biso 1.000000     C
    C   1.0     0.611811     0.611781     0.715587  Biso 1.000000     C
    C   1.0     0.388285     0.284588     0.388305  Biso 1.000000     C
    C   1.0     0.284455     0.388211     0.388236  Biso 1.000000     C
    C   1.0     0.388201     0.388195     0.284443  Biso 1.000000     C
    N   1.0     0.825688     0.033177     0.563565  Biso 1.000000     N
    N   1.0     0.003417     0.110445     0.652231  Biso 1.000000     N
    N   1.0     0.563614     0.825494     0.033175  Biso 1.000000     N
    N   1.0     0.652211     0.003345     0.110400  Biso 1.000000     N
    N   1.0     0.033215     0.563692     0.825641  Biso 1.000000     N
    N   1.0     0.110433     0.652072     0.003362  Biso 1.000000     N
    N   1.0     0.966824     0.174424     0.436452  Biso 1.000000     N
    N   1.0     0.889585     0.996596     0.347767  Biso 1.000000     N
    N   1.0     0.174479     0.436300     0.966829  Biso 1.000000     N
    N   1.0     0.996680     0.347896     0.889613  Biso 1.000000     N
    N   1.0     0.436395     0.966795     0.174300  Biso 1.000000     N
    N   1.0     0.347841     0.889535     0.996626  Biso 1.000000     N
    N   1.0     0.174323     0.966797     0.436463  Biso 1.000000     N
    N   1.0     0.996593     0.889529     0.347797  Biso 1.000000     N
    N   1.0     0.436397     0.174482     0.966855  Biso 1.000000     N
    N   1.0     0.347801     0.996630     0.889630  Biso 1.000000     N
    N   1.0     0.966797     0.436283     0.174389  Biso 1.000000     N
    N   1.0     0.889579     0.347903     0.996667  Biso 1.000000     N
    N   1.0     0.033186     0.825550     0.563576  Biso 1.000000     N
    N   1.0     0.110425     0.003378     0.652262  Biso 1.000000     N
    N   1.0     0.825532     0.563674     0.033200  Biso 1.000000     N
    N   1.0     0.003331     0.652079     0.110417  Biso 1.000000     N
    N   1.0     0.563616     0.033180     0.825730  Biso 1.000000     N
    N   1.0     0.652171     0.110440     0.003404  Biso 1.000000     N
    N   1.0     0.925822     0.925737     0.566664  Biso 1.000000     N
    N   1.0     0.682461     0.682385     0.575294  Biso 1.000000     N
    N   1.0     0.181755     0.181786     0.736184  Biso 1.000000     N
    N   1.0     0.566744     0.925717     0.925853  Biso 1.000000     N
    N   1.0     0.575334     0.682417     0.682500  Biso 1.000000     N
    N   1.0     0.736063     0.181770     0.181708  Biso 1.000000     N
    N   1.0     0.925775     0.566833     0.925831  Biso 1.000000     N
    N   1.0     0.682578     0.575416     0.682587  Biso 1.000000     N
    N   1.0     0.181726     0.735770     0.181706  Biso 1.000000     N
    N   1.0     0.074188     0.074237     0.433363  Biso 1.000000     N
    N   1.0     0.317551     0.317591     0.424735  Biso 1.000000     N
    N   1.0     0.818255     0.818188     0.263844  Biso 1.000000     N
    N   1.0     0.074236     0.433142     0.074198  Biso 1.000000     N
    N   1.0     0.317433     0.424560     0.317442  Biso 1.000000     N
    N   1.0     0.818285     0.264206     0.818323  Biso 1.000000     N
    N   1.0     0.433267     0.074258     0.074177  Biso 1.000000     N
    N   1.0     0.424678     0.317558     0.317529  Biso 1.000000     N
    N   1.0     0.263951     0.818205     0.818322  Biso 1.000000     N
    N   1.0     0.783981     0.576887     0.576904  Biso 1.000000     N
    N   1.0     0.576767     0.783704     0.576766  Biso 1.000000     N
    N   1.0     0.576918     0.576901     0.784014  Biso 1.000000     N
    N   1.0     0.423246     0.216272     0.423265  Biso 1.000000     N
    N   1.0     0.216032     0.423090     0.423127  Biso 1.000000     N
    N   1.0     0.423094     0.423074     0.216014  Biso 1.000000     N
    O   1.0     0.643137     0.851475     0.422275  Biso 1.000000     O
    O   1.0     0.613556     0.826303     0.251386  Biso 1.000000     O
    O   1.0     0.422419     0.643051     0.851713  Biso 1.000000     O
    O   1.0     0.251497     0.613515     0.826398  Biso 1.000000     O
    O   1.0     0.851680     0.422419     0.643175  Biso 1.000000     O
    O   1.0     0.826430     0.251446     0.613542  Biso 1.000000     O
    O   1.0     0.148382     0.356925     0.577687  Biso 1.000000     O
    O   1.0     0.173671     0.386456     0.748572  Biso 1.000000     O
    O   1.0     0.356901     0.577504     0.148258  Biso 1.000000     O
    O   1.0     0.386489     0.748484     0.173555  Biso 1.000000     O
    O   1.0     0.577714     0.148512     0.356837  Biso 1.000000     O
    O   1.0     0.748634     0.173683     0.386440  Biso 1.000000     O
    O   1.0     0.356871     0.148503     0.577757  Biso 1.000000     O
    O   1.0     0.386453     0.173671     0.748643  Biso 1.000000     O
    O   1.0     0.577589     0.356927     0.148313  Biso 1.000000     O
    O   1.0     0.748514     0.386461     0.173630  Biso 1.000000     O
    O   1.0     0.148332     0.577558     0.356856  Biso 1.000000     O
    O   1.0     0.173579     0.748530     0.386487  Biso 1.000000     O
    O   1.0     0.851632     0.643048     0.422346  Biso 1.000000     O
    O   1.0     0.826339     0.613516     0.251458  Biso 1.000000     O
    O   1.0     0.643112     0.422467     0.851769  Biso 1.000000     O
    O   1.0     0.613523     0.251490     0.826475  Biso 1.000000     O
    O   1.0     0.422298     0.851463     0.643194  Biso 1.000000     O
    O   1.0     0.251377     0.826290     0.613589  Biso 1.000000     O
   Ag   1.0     0.787042     0.787003     0.521077  Biso 1.000000    Ag
   Ag   1.0     0.521253     0.787060     0.787115  Biso 1.000000    Ag
   Ag   1.0     0.787213     0.521542     0.787231  Biso 1.000000    Ag
   Ag   1.0     0.212969     0.212972     0.478953  Biso 1.000000    Ag
   Ag   1.0     0.212798     0.478432     0.212798  Biso 1.000000    Ag
   Ag   1.0     0.478757     0.212914     0.212914  Biso 1.000000    Ag
   Ag   1.0    -0.000009     0.275383     0.724667  Biso 1.000000    Ag
   Ag   1.0     0.724769     0.000013     0.275215  Biso 1.000000    Ag
   Ag   1.0     0.275443     0.724526     0.000014  Biso 1.000000    Ag
   Ag   1.0     0.000020     0.724590     0.275362  Biso 1.000000    Ag
   Ag   1.0     0.275235    -0.000008     0.724816  Biso 1.000000    Ag
   Ag   1.0     0.724559     0.275443    -0.000012  Biso 1.000000    Ag
