#======================================================================

# CRYSTAL DATA

#----------------------------------------------------------------------

data_VESTA_phase_1


_pd_phase_name                         MOF
_cell_length_a                         23.21400
_cell_length_b                         9.79600
_cell_length_c                         13.79000
_cell_angle_alpha                      88.86700
_cell_angle_beta                       114.13500
_cell_angle_gamma                      98.07300
_symmetry_space_group_name_H-M         "P 1"
_symmetry_Int_Tables_number            1

loop_
_symmetry_equiv_pos_as_xyz
   "x, y, z"

loop_
   _atom_site_label
   _atom_site_occupancy
   _atom_site_fract_x
   _atom_site_fract_y
   _atom_site_fract_z
   _atom_site_adp_type
   _atom_site_B_iso_or_equiv
   _atom_site_type_symbol
    H   1.0     0.269114     0.301952     0.912247  Biso 1.000000     H
    H   1.0     0.769152     0.301993     0.912226  Biso 1.000000     H
    H   1.0     0.159421     0.626755     0.899640  Biso 1.000000     H
    H   1.0     0.659457     0.626792     0.899623  Biso 1.000000     H
    H   1.0     0.467979     0.631092     0.117500  Biso 1.000000     H
    H   1.0     0.968094     0.631250     0.117562  Biso 1.000000     H
    H   1.0     0.053884     0.293275     0.066247  Biso 1.000000     H
    H   1.0     0.554007     0.293444     0.066311  Biso 1.000000     H
    H   1.0     0.203451     0.131199     0.596187  Biso 1.000000     H
    H   1.0     0.703475     0.131199     0.596231  Biso 1.000000     H
    H   1.0     0.194186     0.771721     0.410798  Biso 1.000000     H
    H   1.0     0.694208     0.771716     0.410844  Biso 1.000000     H
    H   1.0     0.230853     0.697919     0.087752  Biso 1.000000     H
    H   1.0     0.730890     0.697954     0.087736  Biso 1.000000     H
    H   1.0     0.340547     0.373114     0.100360  Biso 1.000000     H
    H   1.0     0.840585     0.373156     0.100339  Biso 1.000000     H
    H   1.0     0.031930     0.368653     0.882436  Biso 1.000000     H
    H   1.0     0.532045     0.368827     0.882500  Biso 1.000000     H
    H   1.0     0.446018     0.706476     0.933690  Biso 1.000000     H
    H   1.0     0.946139     0.706629     0.933752  Biso 1.000000     H
    H   1.0     0.296520     0.868690     0.403749  Biso 1.000000     H
    H   1.0     0.796543     0.868683     0.403797  Biso 1.000000     H
    H   1.0     0.305785     0.228170     0.589138  Biso 1.000000     H
    H   1.0     0.805810     0.228165     0.589182  Biso 1.000000     H
    C   1.0     0.166573     0.420878     0.782908  Biso 1.000000     C
    C   1.0     0.666605     0.420911     0.782891  Biso 1.000000     C
    C   1.0     0.209618     0.460022     0.893444  Biso 1.000000     C
    C   1.0     0.709654     0.460060     0.893426  Biso 1.000000     C
    C   1.0     0.260728     0.388354     0.950898  Biso 1.000000     C
    C   1.0     0.760766     0.388395     0.950877  Biso 1.000000     C
    C   1.0     0.199368     0.571907     0.943978  Biso 1.000000     C
    C   1.0     0.699404     0.571945     0.943959  Biso 1.000000     C
    C   1.0     0.024524     0.416722     0.212247  Biso 1.000000     C
    C   1.0     0.524530     0.416720     0.212247  Biso 1.000000     C
    C   1.0     0.012496     0.457698     0.103935  Biso 1.000000     C
    C   1.0     0.512515     0.457716     0.103943  Biso 1.000000     C
    C   1.0     0.482143     0.574476     0.065665  Biso 1.000000     C
    C   1.0     0.982217     0.574569     0.065703  Biso 1.000000     C
    C   1.0     0.030101     0.383360     0.036905  Biso 1.000000     C
    C   1.0     0.530165     0.383447     0.036937  Biso 1.000000     C
    C   1.0     0.130394     0.883711     0.502723  Biso 1.000000     C
    C   1.0     0.630411     0.883713     0.502754  Biso 1.000000     C
    C   1.0     0.191109     0.945652     0.501371  Biso 1.000000     C
    C   1.0     0.691131     0.945651     0.501413  Biso 1.000000     C
    C   1.0     0.222677     0.074703     0.551568  Biso 1.000000     C
    C   1.0     0.722700     0.074699     0.551613  Biso 1.000000     C
    C   1.0     0.219085     0.871240     0.450235  Biso 1.000000     C
    C   1.0     0.719108     0.871234     0.450282  Biso 1.000000     C
    C   1.0     0.333393     0.578989     0.217094  Biso 1.000000     C
    C   1.0     0.833425     0.579018     0.217078  Biso 1.000000     C
    C   1.0     0.290349     0.539846     0.106557  Biso 1.000000     C
    C   1.0     0.790386     0.539884     0.106537  Biso 1.000000     C
    C   1.0     0.239239     0.611516     0.049102  Biso 1.000000     C
    C   1.0     0.739275     0.611553     0.049085  Biso 1.000000     C
    C   1.0     0.300600     0.427963     0.056023  Biso 1.000000     C
    C   1.0     0.800637     0.428003     0.056002  Biso 1.000000     C
    C   1.0     0.475490     0.583198     0.787752  Biso 1.000000     C
    C   1.0     0.975496     0.583181     0.787751  Biso 1.000000     C
    C   1.0     0.487509     0.542204     0.896059  Biso 1.000000     C
    C   1.0     0.987529     0.542207     0.896065  Biso 1.000000     C
    C   1.0     0.017807     0.425334     0.934296  Biso 1.000000     C
    C   1.0     0.517882     0.425445     0.934337  Biso 1.000000     C
    C   1.0     0.469860     0.616473     0.963064  Biso 1.000000     C
    C   1.0     0.969923     0.616544     0.963095  Biso 1.000000     C
    C   1.0     0.369582     0.116179     0.497226  Biso 1.000000     C
    C   1.0     0.869600     0.116175     0.497258  Biso 1.000000     C
    C   1.0     0.308863     0.054238     0.498567  Biso 1.000000     C
    C   1.0     0.808885     0.054232     0.498611  Biso 1.000000     C
    C   1.0     0.277295     0.925188     0.448368  Biso 1.000000     C
    C   1.0     0.777317     0.925181     0.448415  Biso 1.000000     C
    C   1.0     0.280886     0.128652     0.549701  Biso 1.000000     C
    C   1.0     0.780910     0.128647     0.549745  Biso 1.000000     C
    N   1.0     0.122612     0.500311     0.722877  Biso 1.000000     N
    N   1.0     0.622635     0.500330     0.722868  Biso 1.000000     N
    N   1.0     0.091747     0.431989     0.630239  Biso 1.000000     N
    N   1.0     0.591764     0.432000     0.630234  Biso 1.000000     N
    N   1.0     0.116019     0.314159     0.632919  Biso 1.000000     N
    N   1.0     0.616042     0.314179     0.632908  Biso 1.000000     N
    N   1.0     0.163530     0.304435     0.728427  Biso 1.000000     N
    N   1.0     0.663562     0.304468     0.728410  Biso 1.000000     N
    N   1.0     0.042061     0.295317     0.254671  Biso 1.000000     N
    N   1.0     0.542087     0.295331     0.254681  Biso 1.000000     N
    N   1.0     0.044959     0.305941     0.353291  Biso 1.000000     N
    N   1.0     0.544977     0.305949     0.353296  Biso 1.000000     N
    N   1.0     0.030079     0.429305     0.369512  Biso 1.000000     N
    N   1.0     0.530084     0.429302     0.369509  Biso 1.000000     N
    N   1.0     0.017238     0.500100     0.282506  Biso 1.000000     N
    N   1.0     0.517244     0.500097     0.282503  Biso 1.000000     N
    N   1.0     0.113676     0.746483     0.502711  Biso 1.000000     N
    N   1.0     0.613691     0.746486     0.502735  Biso 1.000000     N
    N   1.0     0.056192     0.730129     0.504347  Biso 1.000000     N
    N   1.0     0.556203     0.730134     0.504355  Biso 1.000000     N
    N   1.0     0.036943     0.851041     0.504893  Biso 1.000000     N
    N   1.0     0.536952     0.851045     0.504896  Biso 1.000000     N
    N   1.0     0.083320     0.950847     0.503759  Biso 1.000000     N
    N   1.0     0.583334     0.950850     0.503777  Biso 1.000000     N
    N   1.0     0.377360     0.499566     0.277120  Biso 1.000000     N
    N   1.0     0.877384     0.499581     0.277109  Biso 1.000000     N
    N   1.0     0.408226     0.567889     0.369758  Biso 1.000000     N
    N   1.0     0.908244     0.567895     0.369752  Biso 1.000000     N
    N   1.0     0.383947     0.685709     0.367084  Biso 1.000000     N
    N   1.0     0.883971     0.685724     0.367075  Biso 1.000000     N
    N   1.0     0.336433     0.695427     0.271578  Biso 1.000000     N
    N   1.0     0.836465     0.695455     0.271563  Biso 1.000000     N
    N   1.0     0.457933     0.704587     0.745321  Biso 1.000000     N
    N   1.0     0.957961     0.704590     0.745332  Biso 1.000000     N
    N   1.0     0.455034     0.693964     0.646700  Biso 1.000000     N
    N   1.0     0.955053     0.693963     0.646706  Biso 1.000000     N
    N   1.0     0.469921     0.570606     0.630482  Biso 1.000000     N
    N   1.0     0.969925     0.570592     0.630478  Biso 1.000000     N
    N   1.0     0.482767     0.499814     0.717490  Biso 1.000000     N
    N   1.0     0.982772     0.499800     0.717486  Biso 1.000000     N
    N   1.0     0.386300     0.253407     0.497241  Biso 1.000000     N
    N   1.0     0.886316     0.253402     0.497265  Biso 1.000000     N
    N   1.0     0.443788     0.269761     0.495621  Biso 1.000000     N
    N   1.0     0.943800     0.269757     0.495629  Biso 1.000000     N
    N   1.0     0.463041     0.148851     0.495083  Biso 1.000000     N
    N   1.0     0.963051     0.148846     0.495086  Biso 1.000000     N
    N   1.0     0.416660     0.049045     0.496204  Biso 1.000000     N
    N   1.0     0.916675     0.049040     0.496223  Biso 1.000000     N
   Cd   1.0     0.065692     0.169227     0.490313  Biso 1.000000    Cd
   Cd   1.0     0.565703     0.169230     0.490316  Biso 1.000000    Cd
   Cd   1.0     0.434293     0.830667     0.509670  Biso 1.000000    Cd
   Cd   1.0     0.934305     0.830662     0.509675  Biso 1.000000    Cd
   Cd   1.0    -0.000010     0.499942     0.499991  Biso 1.000000    Cd
   Cd   1.0     0.499997     0.499946     0.499991  Biso 1.000000    Cd
