#======================================================================

# CRYSTAL DATA

#----------------------------------------------------------------------

data_VESTA_phase_1


_pd_phase_name                         MOF
_cell_length_a                         14.14800
_cell_length_b                         14.81400
_cell_length_c                         16.80300
_cell_angle_alpha                      90.27700
_cell_angle_beta                       81.42500
_cell_angle_gamma                      90.18300
_symmetry_space_group_name_H-M         "P 1"
_symmetry_Int_Tables_number            1

loop_
_symmetry_equiv_pos_as_xyz
   "x, y, z"

loop_
   _atom_site_label
   _atom_site_occupancy
   _atom_site_fract_x
   _atom_site_fract_y
   _atom_site_fract_z
   _atom_site_adp_type
   _atom_site_B_iso_or_equiv
   _atom_site_type_symbol
    H   1.0     0.079911     0.462073     0.062009  Biso 1.000000     H
    H   1.0     0.083602     0.963386     0.064610  Biso 1.000000     H
    H   1.0     0.157803     0.482808     0.909686  Biso 1.000000     H
    H   1.0     0.160589     0.984958     0.912131  Biso 1.000000     H
    H   1.0     0.471175     0.542942     0.635563  Biso 1.000000     H
    H   1.0     0.475278     0.000000     0.638482  Biso 1.000000     H
    H   1.0     0.637470     0.535013     0.538317  Biso 1.000000     H
    H   1.0     0.641544     0.000000     0.541118  Biso 1.000000     H
    H   1.0     0.919681     0.210303     0.938877  Biso 1.000000     H
    H   1.0     0.920278     0.711941     0.939604  Biso 1.000000     H
    H   1.0     0.842230     0.230836     0.091469  Biso 1.000000     H
    H   1.0     0.843625     0.731617     0.092497  Biso 1.000000     H
    H   1.0     0.528186     0.291799     0.363919  Biso 1.000000     H
    H   1.0     0.530625     0.792765     0.365680  Biso 1.000000     H
    H   1.0     0.362026     0.284027     0.461336  Biso 1.000000     H
    H   1.0     0.363995     0.785075     0.462576  Biso 1.000000     H
    C   1.0     0.303297     0.500153     0.566923  Biso 1.000000     C
    C   1.0     0.307418     0.000000     0.569998  Biso 1.000000     C
    C   1.0     0.885408     0.426097     0.097762  Biso 1.000000     C
    C   1.0     0.889447     0.925215     0.100971  Biso 1.000000     C
    C   1.0     0.041933     0.457980     0.010480  Biso 1.000000     C
    C   1.0     0.045349     0.959100     0.013252  Biso 1.000000     C
    C   1.0     0.040585     0.462199     0.789691  Biso 1.000000     C
    C   1.0     0.042988     0.962820     0.792537  Biso 1.000000     C
    C   1.0     0.016146     0.460334     0.877325  Biso 1.000000     C
    C   1.0     0.018936     0.961300     0.880226  Biso 1.000000     C
    C   1.0     0.944622     0.440281     0.019172  Biso 1.000000     C
    C   1.0     0.948177     0.940549     0.022273  Biso 1.000000     C
    C   1.0     0.082618     0.469690     0.929913  Biso 1.000000     C
    C   1.0     0.085573     0.971219     0.932605  Biso 1.000000     C
    C   1.0     0.556393     0.508495     0.440459  Biso 1.000000     C
    C   1.0     0.560461     0.000000     0.443528  Biso 1.000000     C
    C   1.0     0.633093     0.487422     0.374016  Biso 1.000000     C
    C   1.0     0.637164     0.987703     0.377059  Biso 1.000000     C
    C   1.0     0.402496     0.515157     0.530460  Biso 1.000000     C
    C   1.0     0.406603     0.000000     0.533616  Biso 1.000000     C
    C   1.0     0.479661     0.530646     0.571088  Biso 1.000000     C
    C   1.0     0.483756     0.000000     0.574082  Biso 1.000000     C
    C   1.0     0.567591     0.526871     0.519617  Biso 1.000000     C
    C   1.0     0.571663     0.000000     0.522562  Biso 1.000000     C
    C   1.0     0.696415     0.251921     0.432804  Biso 1.000000     C
    C   1.0     0.697860     0.749792     0.434078  Biso 1.000000     C
    C   1.0     0.114870     0.178286     0.902381  Biso 1.000000     C
    C   1.0     0.114765     0.676300     0.902395  Biso 1.000000     C
    C   1.0     0.958066     0.207735     0.990199  Biso 1.000000     C
    C   1.0     0.958748     0.707718     0.990786  Biso 1.000000     C
    C   1.0     0.960649     0.214776     0.210828  Biso 1.000000     C
    C   1.0     0.961702     0.710548     0.211398  Biso 1.000000     C
    C   1.0     0.984615     0.212235     0.123153  Biso 1.000000     C
    C   1.0     0.985637     0.709329     0.123687  Biso 1.000000     C
    C   1.0     0.055710     0.192220     0.981092  Biso 1.000000     C
    C   1.0     0.056044     0.690290     0.981314  Biso 1.000000     C
    C   1.0     0.917610     0.219371     0.070910  Biso 1.000000     C
    C   1.0     0.918699     0.718853     0.071662  Biso 1.000000     C
    C   1.0     0.443310     0.259844     0.559212  Biso 1.000000     C
    C   1.0     0.444541     0.758311     0.560396  Biso 1.000000     C
    C   1.0     0.366820     0.239165     0.625874  Biso 1.000000     C
    C   1.0     0.367412     0.737365     0.626525  Biso 1.000000     C
    C   1.0     0.597098     0.266410     0.469064  Biso 1.000000     C
    C   1.0     0.598753     0.764789     0.470704  Biso 1.000000     C
    C   1.0     0.519831     0.280497     0.428439  Biso 1.000000     C
    C   1.0     0.521818     0.780399     0.430054  Biso 1.000000     C
    C   1.0     0.431959     0.276790     0.479995  Biso 1.000000     C
    C   1.0     0.433741     0.776727     0.481330  Biso 1.000000     C
    N   1.0     0.081063     0.205759     0.596862  Biso 1.000000     N
    N   1.0     0.082118     0.709381     0.596764  Biso 1.000000     N
    N   1.0     0.919108     0.455901     0.403377  Biso 1.000000     N
    N   1.0     0.922010     0.961900     0.406613  Biso 1.000000     N
    O   1.0     0.074616     0.129291     0.569901  Biso 1.000000     O
    O   1.0     0.074404     0.633141     0.569735  Biso 1.000000     O
    O   1.0     0.275836     0.522898     0.641742  Biso 1.000000     O
    O   1.0     0.279698     0.000000     0.644774  Biso 1.000000     O
    O   1.0     0.246535     0.456940     0.528246  Biso 1.000000     O
    O   1.0     0.250755     0.957217     0.531224  Biso 1.000000     O
    O   1.0     0.925488     0.440399     0.160051  Biso 1.000000     O
    O   1.0     0.930204     0.937796     0.163191  Biso 1.000000     O
    O   1.0     0.797903     0.398846     0.104268  Biso 1.000000     O
    O   1.0     0.801715     0.898805     0.107695  Biso 1.000000     O
    O   1.0     0.091093     0.219005     0.673217  Biso 1.000000     O
    O   1.0     0.091075     0.722170     0.673485  Biso 1.000000     O
    O   1.0     0.118441     0.009095     0.760846  Biso 1.000000     O
    O   1.0     0.115604     0.508999     0.758294  Biso 1.000000     O
    O   1.0     0.720504     0.507304     0.382595  Biso 1.000000     O
    O   1.0     0.724514     0.000000     0.385466  Biso 1.000000     O
    O   1.0     0.078710     0.277709     0.555565  Biso 1.000000     O
    O   1.0     0.082232     0.781498     0.555412  Biso 1.000000     O
    O   1.0     0.998665     0.413349     0.743364  Biso 1.000000     O
    O   1.0     0.000000     0.914251     0.746541  Biso 1.000000     O
    O   1.0     0.613604     0.445406     0.312470  Biso 1.000000     O
    O   1.0     0.617703     0.945288     0.315726  Biso 1.000000     O
    O   1.0     0.925645     0.379612     0.430013  Biso 1.000000     O
    O   1.0     0.929706     0.886246     0.434080  Biso 1.000000     O
    O   1.0     0.723900     0.273252     0.357802  Biso 1.000000     O
    O   1.0     0.725259     0.772499     0.359407  Biso 1.000000     O
    O   1.0     0.753428     0.210595     0.471994  Biso 1.000000     O
    O   1.0     0.754589     0.706696     0.472297  Biso 1.000000     O
    O   1.0     0.074457     0.190980     0.840165  Biso 1.000000     O
    O   1.0     0.074435     0.690601     0.840364  Biso 1.000000     O
    O   1.0     0.202765     0.152668     0.895773  Biso 1.000000     O
    O   1.0     0.202143     0.649108     0.895412  Biso 1.000000     O
    O   1.0     0.913095    -0.026888     0.329851  Biso 1.000000     O
    O   1.0     0.909055     0.468722     0.327081  Biso 1.000000     O
    O   1.0     0.884783     0.260334     0.242309  Biso 1.000000     O
    O   1.0     0.887339     0.757806     0.243577  Biso 1.000000     O
    O   1.0     0.279245     0.257744     0.617269  Biso 1.000000     O
    O   1.0     0.280242     0.757533     0.617927  Biso 1.000000     O
    O   1.0     0.921834     0.034795     0.447649  Biso 1.000000     O
    O   1.0     0.921369     0.528084     0.444935  Biso 1.000000     O
    O   1.0     0.003753     0.167709     0.257001  Biso 1.000000     O
    O   1.0     0.003163     0.660891     0.256829  Biso 1.000000     O
    O   1.0     0.386608     0.198732     0.687667  Biso 1.000000     O
    O   1.0     0.386369     0.695191     0.687752  Biso 1.000000     O
    S   1.0     0.903311     0.435071     0.927580  Biso 1.000000     S
    S   1.0     0.906453     0.935292     0.930832  Biso 1.000000     S
    S   1.0     0.437945     0.495846     0.428914  Biso 1.000000     S
    S   1.0     0.442060     0.995614     0.432159  Biso 1.000000     S
    S   1.0     0.097695     0.189109     0.072425  Biso 1.000000     S
    S   1.0     0.098125     0.684691     0.072527  Biso 1.000000     S
    S   1.0     0.561808     0.248498     0.570694  Biso 1.000000     S
    S   1.0     0.562862     0.745533     0.572087  Biso 1.000000     S
   Cl   1.0     0.238513     0.340829     0.785208  Biso 1.000000    Cl
   Cl   1.0     0.240022     0.838744     0.786818  Biso 1.000000    Cl
   Cl   1.0     0.765061     0.087911     0.216526  Biso 1.000000    Cl
   Cl   1.0     0.762005     0.589146     0.215133  Biso 1.000000    Cl
   La   1.0     0.154890     0.386198     0.651514  Biso 1.000000    La
   La   1.0     0.157165     0.887498     0.653781  Biso 1.000000    La
   La   1.0     0.218023     0.149881     0.746954  Biso 1.000000    La
   La   1.0     0.216794     0.648662     0.746324  Biso 1.000000    La
   La   1.0     0.847344     0.139352     0.349671  Biso 1.000000    La
   La   1.0     0.845834     0.635427     0.348847  Biso 1.000000    La
   La   1.0     0.782429     0.398293     0.253251  Biso 1.000000    La
   La   1.0     0.787212     0.898261     0.256990  Biso 1.000000    La
