#======================================================================

# CRYSTAL DATA

#----------------------------------------------------------------------

data_VESTA_phase_1


_pd_phase_name                         MOF
_cell_length_a                         13.14400
_cell_length_b                         13.12600
_cell_length_c                         13.66000
_cell_angle_alpha                      89.93300
_cell_angle_beta                       89.93300
_cell_angle_gamma                      89.98900
_symmetry_space_group_name_H-M         "P 1"
_symmetry_Int_Tables_number            1

loop_
_symmetry_equiv_pos_as_xyz
   "x, y, z"

loop_
   _atom_site_label
   _atom_site_occupancy
   _atom_site_fract_x
   _atom_site_fract_y
   _atom_site_fract_z
   _atom_site_adp_type
   _atom_site_B_iso_or_equiv
   _atom_site_type_symbol
    H   1.0     0.082809     0.311293     0.794324  Biso 1.000000     H
    H   1.0     0.086186     0.356768     0.671495  Biso 1.000000     H
    H   1.0     0.159084     0.421373     0.765467  Biso 1.000000     H
    H   1.0     0.040972     0.793863     0.977090  Biso 1.000000     H
    H   1.0     0.117859     0.855967     0.068297  Biso 1.000000     H
    H   1.0     0.005805     0.789653     0.105826  Biso 1.000000     H
    H   1.0     0.417237     0.188538     0.792844  Biso 1.000000     H
    H   1.0     0.415655     0.142538     0.670251  Biso 1.000000     H
    H   1.0     0.342347     0.077608     0.763993  Biso 1.000000     H
    H   1.0     0.459795     0.706160     0.976701  Biso 1.000000     H
    H   1.0     0.382939     0.643700     0.068055  Biso 1.000000     H
    H   1.0     0.494399     0.710900     0.105442  Biso 1.000000     H
    H   1.0     0.688482     0.583117     0.294208  Biso 1.000000     H
    H   1.0     0.643133     0.586363     0.171434  Biso 1.000000     H
    H   1.0     0.578172     0.658963     0.265544  Biso 1.000000     H
    H   1.0     0.206046     0.540191     0.477299  Biso 1.000000     H
    H   1.0     0.143904     0.617011     0.568715  Biso 1.000000     H
    H   1.0     0.210678     0.505041     0.605969  Biso 1.000000     H
    H   1.0     0.810329     0.916817     0.294686  Biso 1.000000     H
    H   1.0     0.855686     0.913830     0.171833  Biso 1.000000     H
    H   1.0     0.920427     0.840720     0.265729  Biso 1.000000     H
    H   1.0     0.292923     0.958917     0.475001  Biso 1.000000     H
    H   1.0     0.355867     0.882390     0.566147  Biso 1.000000     H
    H   1.0     0.289517     0.994577     0.603510  Biso 1.000000     H
    H   1.0     0.917170     0.688734     0.205662  Biso 1.000000     H
    H   1.0     0.913788     0.643255     0.328487  Biso 1.000000     H
    H   1.0     0.840856     0.578682     0.234522  Biso 1.000000     H
    H   1.0     0.958998     0.206148     0.022898  Biso 1.000000     H
    H   1.0     0.882146     0.144023     0.931685  Biso 1.000000     H
    H   1.0     0.994181     0.210367     0.894166  Biso 1.000000     H
    H   1.0     0.582791     0.811383     0.207141  Biso 1.000000     H
    H   1.0     0.584343     0.857389     0.329728  Biso 1.000000     H
    H   1.0     0.657668     0.922318     0.236006  Biso 1.000000     H
    H   1.0     0.540201     0.293707     0.023296  Biso 1.000000     H
    H   1.0     0.617039     0.356198     0.931957  Biso 1.000000     H
    H   1.0     0.505589     0.288997     0.894555  Biso 1.000000     H
    H   1.0     0.311494     0.416815     0.705742  Biso 1.000000     H
    H   1.0     0.356841     0.413572     0.828520  Biso 1.000000     H
    H   1.0     0.421821     0.340991     0.734408  Biso 1.000000     H
    H   1.0     0.793941     0.459798     0.522628  Biso 1.000000     H
    H   1.0     0.856062     0.382963     0.431214  Biso 1.000000     H
    H   1.0     0.789287     0.494926     0.393954  Biso 1.000000     H
    H   1.0     0.189674     0.083179     0.705276  Biso 1.000000     H
    H   1.0     0.144328     0.086182     0.828132  Biso 1.000000     H
    H   1.0     0.079580     0.159281     0.734234  Biso 1.000000     H
    H   1.0     0.707090     0.041041     0.524994  Biso 1.000000     H
    H   1.0     0.644125     0.117576     0.433870  Biso 1.000000     H
    H   1.0     0.710471     0.005395     0.396481  Biso 1.000000     H
    C   1.0     0.120651     0.620503     0.860755  Biso 1.000000     C
    C   1.0     0.056428     0.558118     0.932101  Biso 1.000000     C
    C   1.0     0.991374     0.480481     0.898439  Biso 1.000000     C
    C   1.0     0.064092     0.578327     0.033238  Biso 1.000000     C
    C   1.0     0.089234     0.379510     0.748681  Biso 1.000000     C
    C   1.0     0.068223     0.790766     0.052833  Biso 1.000000     C
    C   1.0     0.380595     0.880085     0.860169  Biso 1.000000     C
    C   1.0     0.444135     0.942187     0.931837  Biso 1.000000     C
    C   1.0     0.509315     0.019949     0.898476  Biso 1.000000     C
    C   1.0     0.435616     0.921510     0.032871  Biso 1.000000     C
    C   1.0     0.411979     0.120086     0.747550  Biso 1.000000     C
    C   1.0     0.432187     0.709204     0.052381  Biso 1.000000     C
    C   1.0     0.378982     0.619279     0.360462  Biso 1.000000     C
    C   1.0     0.441609     0.555755     0.431986  Biso 1.000000     C
    C   1.0     0.519632     0.491018     0.398456  Biso 1.000000     C
    C   1.0     0.421344     0.563951     0.533079  Biso 1.000000     C
    C   1.0     0.620364     0.589232     0.248661  Biso 1.000000     C
    C   1.0     0.209175     0.567537     0.552986  Biso 1.000000     C
    C   1.0     0.119283     0.879090     0.360390  Biso 1.000000     C
    C   1.0     0.057327     0.943258     0.431935  Biso 1.000000     C
    C   1.0     0.979726     0.008517     0.398545  Biso 1.000000     C
    C   1.0     0.078360     0.935646     0.532903  Biso 1.000000     C
    C   1.0     0.878448     0.910630     0.249010  Biso 1.000000     C
    C   1.0     0.290491     0.931868     0.550873  Biso 1.000000     C
    C   1.0     0.879303     0.379478     0.139223  Biso 1.000000     C
    C   1.0     0.943470     0.441905     0.067863  Biso 1.000000     C
    C   1.0     0.008536     0.519524     0.101543  Biso 1.000000     C
    C   1.0     0.935832     0.421647     0.966732  Biso 1.000000     C
    C   1.0     0.910725     0.620517     0.251300  Biso 1.000000     C
    C   1.0     0.931756     0.209245     0.947152  Biso 1.000000     C
    C   1.0     0.619396     0.119845     0.139789  Biso 1.000000     C
    C   1.0     0.555894     0.057700     0.068120  Biso 1.000000     C
    C   1.0     0.490723     0.979941     0.101505  Biso 1.000000     C
    C   1.0     0.564404     0.078419     0.967092  Biso 1.000000     C
    C   1.0     0.588031     0.879841     0.252429  Biso 1.000000     C
    C   1.0     0.567804     0.290679     0.947615  Biso 1.000000     C
    C   1.0     0.621006     0.380732     0.639511  Biso 1.000000     C
    C   1.0     0.558354     0.444219     0.567978  Biso 1.000000     C
    C   1.0     0.480342     0.508967     0.601512  Biso 1.000000     C
    C   1.0     0.578640     0.436040     0.466886  Biso 1.000000     C
    C   1.0     0.379612     0.410710     0.751293  Biso 1.000000     C
    C   1.0     0.790793     0.432439     0.446946  Biso 1.000000     C
    C   1.0     0.880720     0.120909     0.639587  Biso 1.000000     C
    C   1.0     0.942673     0.056730     0.568048  Biso 1.000000     C
    C   1.0     0.020275     0.991474     0.601441  Biso 1.000000     C
    C   1.0     0.921632     0.064336     0.467081  Biso 1.000000     C
    C   1.0     0.121559     0.089372     0.750957  Biso 1.000000     C
    C   1.0     0.709507     0.068098     0.449124  Biso 1.000000     C
    O   1.0     0.084030     0.706562     0.837645  Biso 1.000000     O
    O   1.0     0.203877     0.580651     0.834250  Biso 1.000000     O
    O   1.0     0.417671     0.794257     0.837104  Biso 1.000000     O
    O   1.0     0.297534     0.919983     0.833345  Biso 1.000000     O
    O   1.0     0.293299     0.581982     0.337632  Biso 1.000000     O
    O   1.0     0.418306     0.702676     0.333496  Biso 1.000000     O
    O   1.0     0.205065     0.915979     0.337059  Biso 1.000000     O
    O   1.0     0.079560     0.795809     0.333888  Biso 1.000000     O
    O   1.0     0.915956     0.293433     0.162335  Biso 1.000000     O
    O   1.0     0.796059     0.419283     0.165732  Biso 1.000000     O
    O   1.0     0.582291     0.205659     0.162858  Biso 1.000000     O
    O   1.0     0.702478     0.080004     0.166621  Biso 1.000000     O
    O   1.0     0.706691     0.418030     0.662334  Biso 1.000000     O
    O   1.0     0.581690     0.297329     0.666471  Biso 1.000000     O
    O   1.0     0.794935     0.084028     0.662916  Biso 1.000000     O
    O   1.0     0.920439     0.204196     0.666078  Biso 1.000000     O
    S   1.0     0.981403     0.463535     0.768869  Biso 1.000000     S
    S   1.0     0.148909     0.679010     0.066581  Biso 1.000000     S
    S   1.0     0.520400     0.037153     0.768962  Biso 1.000000     S
    S   1.0     0.350788     0.820496     0.065607  Biso 1.000000     S
    S   1.0     0.536919     0.480874     0.268903  Biso 1.000000     S
    S   1.0     0.320501     0.648705     0.566262  Biso 1.000000     S
    S   1.0     0.962141     0.018710     0.269046  Biso 1.000000     S
    S   1.0     0.179233     0.850813     0.565802  Biso 1.000000     S
    S   1.0     0.018530     0.536459     0.231113  Biso 1.000000     S
    S   1.0     0.851016     0.320963     0.933386  Biso 1.000000     S
    S   1.0     0.479603     0.962766     0.231019  Biso 1.000000     S
    S   1.0     0.649245     0.179422     0.934352  Biso 1.000000     S
    S   1.0     0.463034     0.519089     0.731064  Biso 1.000000     S
    S   1.0     0.679466     0.351264     0.433703  Biso 1.000000     S
    S   1.0     0.037863     0.981290     0.730941  Biso 1.000000     S
    S   1.0     0.820755     0.149167     0.434185  Biso 1.000000     S
   Ag   1.0     0.825802     0.332924     0.750441  Biso 1.000000    Ag
   Ag   1.0     0.675542     0.168523     0.751377  Biso 1.000000    Ag
   Ag   1.0     0.667426     0.325105     0.250720  Biso 1.000000    Ag
   Ag   1.0     0.831145     0.174220     0.251023  Biso 1.000000    Ag
   Ag   1.0     0.174162     0.667043     0.249524  Biso 1.000000    Ag
   Ag   1.0     0.324424     0.831452     0.248576  Biso 1.000000    Ag
   Ag   1.0     0.332493     0.674828     0.749256  Biso 1.000000    Ag
   Ag   1.0     0.168846     0.825782     0.748974  Biso 1.000000    Ag
