#======================================================================

# CRYSTAL DATA

#----------------------------------------------------------------------

data_VESTA_phase_1


_pd_phase_name                         MOF
_cell_length_a                         14.44700
_cell_length_b                         15.85700
_cell_length_c                         10.85000
_cell_angle_alpha                      90.02400
_cell_angle_beta                       89.99700
_cell_angle_gamma                      90.00000
_symmetry_space_group_name_H-M         "P 1"
_symmetry_Int_Tables_number            1

loop_
_symmetry_equiv_pos_as_xyz
   "x, y, z"

loop_
   _atom_site_label
   _atom_site_occupancy
   _atom_site_fract_x
   _atom_site_fract_y
   _atom_site_fract_z
   _atom_site_adp_type
   _atom_site_B_iso_or_equiv
   _atom_site_type_symbol
    H   1.0     0.749993     0.502103     0.365931  Biso 1.000000     H
    H   1.0     0.749991     0.502102     0.865896  Biso 1.000000     H
    H   1.0     0.749991     0.612062     0.402445  Biso 1.000000     H
    H   1.0     0.749993     0.612057     0.902441  Biso 1.000000     H
    H   1.0     0.749980    -0.001893     0.365871  Biso 1.000000     H
    H   1.0     0.749989    -0.001874     0.865909  Biso 1.000000     H
    H   1.0     0.749976     0.888189     0.402502  Biso 1.000000     H
    H   1.0     0.749986     0.888210     0.902530  Biso 1.000000     H
    H   1.0     0.250012     0.000000     0.128642  Biso 1.000000     H
    H   1.0     0.250009     0.000000     0.628699  Biso 1.000000     H
    H   1.0     0.249934     0.112463     0.093200  Biso 1.000000     H
    H   1.0     0.249993     0.112306     0.592867  Biso 1.000000     H
    H   1.0     0.249981     0.498111     0.129253  Biso 1.000000     H
    H   1.0     0.250004     0.498171     0.629225  Biso 1.000000     H
    H   1.0     0.250021     0.388234     0.092122  Biso 1.000000     H
    H   1.0     0.250017     0.388286     0.592146  Biso 1.000000     H
    C   1.0     0.749996     0.565932     0.326545  Biso 1.000000     C
    C   1.0     0.749996     0.565937     0.826530  Biso 1.000000     C
    C   1.0     0.749984     0.934238     0.326552  Biso 1.000000     C
    C   1.0     0.749996     0.934260     0.826582  Biso 1.000000     C
    C   1.0     0.249989     0.066036     0.168661  Biso 1.000000     C
    C   1.0     0.250002     0.066005     0.668490  Biso 1.000000     C
    C   1.0     0.249998     0.434174     0.168262  Biso 1.000000     C
    C   1.0     0.250006     0.434243     0.668264  Biso 1.000000     C
    O   1.0     0.655321     0.666125     0.165999  Biso 1.000000     O
    O   1.0     0.655342     0.666147     0.665984  Biso 1.000000     O
    O   1.0     0.562320     0.596167     0.329263  Biso 1.000000     O
    O   1.0     0.562331     0.596182     0.829256  Biso 1.000000     O
    O   1.0     0.629306     0.505912     0.155707  Biso 1.000000     O
    O   1.0     0.629306     0.505942     0.655683  Biso 1.000000     O
    O   1.0     0.437681     0.603752     0.051774  Biso 1.000000     O
    O   1.0     0.437676     0.603743     0.551739  Biso 1.000000     O
    O   1.0     0.844684     0.833940     0.165974  Biso 1.000000     O
    O   1.0     0.844722     0.833949     0.666057  Biso 1.000000     O
    O   1.0     0.937576     0.903810     0.329411  Biso 1.000000     O
    O   1.0     0.937614     0.903874     0.829452  Biso 1.000000     O
    O   1.0     0.870801     0.994135     0.155848  Biso 1.000000     O
    O   1.0     0.870806     0.994144     0.655837  Biso 1.000000     O
    O   1.0     0.062348     0.896203     0.051858  Biso 1.000000     O
    O   1.0     0.062313     0.896152     0.551959  Biso 1.000000     O
    O   1.0     0.344721     0.165732     0.329884  Biso 1.000000     O
    O   1.0     0.344691     0.165909     0.829502  Biso 1.000000     O
    O   1.0     0.437622     0.096182     0.165962  Biso 1.000000     O
    O   1.0     0.437641     0.096183     0.665834  Biso 1.000000     O
    O   1.0     0.370690     0.005409     0.338936  Biso 1.000000     O
    O   1.0     0.370690     0.005631     0.839010  Biso 1.000000     O
    O   1.0     0.562269     0.103738     0.443161  Biso 1.000000     O
    O   1.0     0.562235     0.103752     0.943202  Biso 1.000000     O
    O   1.0     0.155285     0.333584     0.328346  Biso 1.000000     O
    O   1.0     0.155294     0.333762     0.828485  Biso 1.000000     O
    O   1.0     0.062342     0.403810     0.165350  Biso 1.000000     O
    O   1.0     0.062349     0.403843     0.665382  Biso 1.000000     O
    O   1.0     0.129234     0.493752     0.339277  Biso 1.000000     O
    O   1.0     0.129234     0.493932     0.839186  Biso 1.000000     O
    O   1.0     0.937647     0.396226     0.442992  Biso 1.000000     O
    O   1.0     0.937634     0.396236     0.942969  Biso 1.000000     O
    O   1.0     0.344652     0.333665     0.328447  Biso 1.000000     O
    O   1.0     0.344691     0.333773     0.828506  Biso 1.000000     O
    O   1.0     0.437657     0.403817     0.165401  Biso 1.000000     O
    O   1.0     0.437661     0.403847     0.665399  Biso 1.000000     O
    O   1.0     0.370749     0.493829     0.339245  Biso 1.000000     O
    O   1.0     0.370760     0.493943     0.839189  Biso 1.000000     O
    O   1.0     0.562350     0.396229     0.442995  Biso 1.000000     O
    O   1.0     0.562353     0.396233     0.942984  Biso 1.000000     O
    O   1.0     0.155282     0.165429     0.330440  Biso 1.000000     O
    O   1.0     0.155300     0.165872     0.829561  Biso 1.000000     O
    O   1.0     0.062396     0.096194     0.166119  Biso 1.000000     O
    O   1.0     0.062366     0.096179     0.665859  Biso 1.000000     O
    O   1.0     0.129312     0.005075     0.338738  Biso 1.000000     O
    O   1.0     0.129309     0.005585     0.838992  Biso 1.000000     O
    O   1.0     0.937726     0.103723     0.443189  Biso 1.000000     O
    O   1.0     0.937795     0.103754     0.943281  Biso 1.000000     O
    O   1.0     0.655312     0.833937     0.165971  Biso 1.000000     O
    O   1.0     0.655305     0.833957     0.666024  Biso 1.000000     O
    O   1.0     0.562377     0.903834     0.329365  Biso 1.000000     O
    O   1.0     0.562372     0.903870     0.829393  Biso 1.000000     O
    O   1.0     0.629218     0.994136     0.155814  Biso 1.000000     O
    O   1.0     0.629227     0.994156     0.655825  Biso 1.000000     O
    O   1.0     0.437668     0.896210     0.051850  Biso 1.000000     O
    O   1.0     0.437686     0.896184     0.551900  Biso 1.000000     O
    O   1.0     0.844691     0.666121     0.165999  Biso 1.000000     O
    O   1.0     0.844676     0.666130     0.665970  Biso 1.000000     O
    O   1.0     0.937679     0.596161     0.329257  Biso 1.000000     O
    O   1.0     0.937667     0.596179     0.829249  Biso 1.000000     O
    O   1.0     0.870692     0.505903     0.155712  Biso 1.000000     O
    O   1.0     0.870693     0.505917     0.655702  Biso 1.000000     O
    O   1.0     0.062323     0.603744     0.051764  Biso 1.000000     O
    O   1.0     0.062331     0.603729     0.551716  Biso 1.000000     O
    O   1.0     0.750012     0.750238     0.468536  Biso 1.000000     O
    O   1.0     0.750005     0.750066     0.968502  Biso 1.000000     O
    O   1.0     0.249999     0.250911     0.026409  Biso 1.000000     O
    O   1.0     0.250028     0.251050     0.526499  Biso 1.000000     O
    P   1.0     0.644787     0.583483     0.239349  Biso 1.000000     P
    P   1.0     0.644794     0.583506     0.739333  Biso 1.000000     P
    P   1.0     0.855205     0.916587     0.239407  Biso 1.000000     P
    P   1.0     0.855233     0.916616     0.739449  Biso 1.000000     P
    P   1.0     0.355220     0.083284     0.255930  Biso 1.000000     P
    P   1.0     0.355212     0.083376     0.755774  Biso 1.000000     P
    P   1.0     0.144776     0.416374     0.255311  Biso 1.000000     P
    P   1.0     0.144782     0.416490     0.755332  Biso 1.000000     P
    P   1.0     0.355204     0.416413     0.255347  Biso 1.000000     P
    P   1.0     0.355218     0.416496     0.755345  Biso 1.000000     P
    P   1.0     0.144781     0.083148     0.256084  Biso 1.000000     P
    P   1.0     0.144789     0.083355     0.755796  Biso 1.000000     P
    P   1.0     0.644779     0.916590     0.239388  Biso 1.000000     P
    P   1.0     0.644780     0.916618     0.739422  Biso 1.000000     P
    P   1.0     0.855215     0.583479     0.239351  Biso 1.000000     P
    P   1.0     0.855207     0.583494     0.739334  Biso 1.000000     P
    K   1.0     0.487660     0.749993     0.667611  Biso 1.000000     K
    K   1.0     0.487651     0.750011     0.000000  Biso 1.000000     K
    K   1.0     0.000000     0.749966     0.667670  Biso 1.000000     K
    K   1.0     0.000000     0.750008     0.000000  Biso 1.000000     K
    K   1.0     0.512324     0.249915    -0.172550  Biso 1.000000     K
    K   1.0     0.512314     0.249883     0.327476  Biso 1.000000     K
    K   1.0    -0.012327     0.249896    -0.172545  Biso 1.000000     K
    K   1.0    -0.012299     0.249803     0.327508  Biso 1.000000     K
    V   1.0     0.467978     0.547177    -0.067143  Biso 1.000000     V
    V   1.0     0.467958     0.547150     0.432829  Biso 1.000000     V
    V   1.0     0.032048     0.952759    -0.066984  Biso 1.000000     V
    V   1.0     0.032012     0.952590     0.433001  Biso 1.000000     V
    V   1.0     0.531970     0.047227     0.562079  Biso 1.000000     V
    V   1.0     0.531948     0.047246     0.000000  Biso 1.000000     V
    V   1.0     0.967915     0.452786     0.561933  Biso 1.000000     V
    V   1.0     0.967916     0.452787     0.000000  Biso 1.000000     V
    V   1.0     0.532085     0.452803     0.561929  Biso 1.000000     V
    V   1.0     0.532077     0.452793     0.000000  Biso 1.000000     V
    V   1.0     0.968070     0.047209     0.562076  Biso 1.000000     V
    V   1.0     0.968096     0.047258     0.000000  Biso 1.000000     V
    V   1.0     0.467946     0.952757    -0.067019  Biso 1.000000     V
    V   1.0     0.467969     0.952679     0.432982  Biso 1.000000     V
    V   1.0     0.032013     0.547177    -0.067152  Biso 1.000000     V
    V   1.0     0.032029     0.547131     0.432824  Biso 1.000000     V
    V   1.0     0.750006     0.750041     0.115981  Biso 1.000000     V
    V   1.0     0.750017     0.750102     0.616002  Biso 1.000000     V
    V   1.0     0.249975     0.249983     0.379063  Biso 1.000000     V
    V   1.0     0.249990     0.250099     0.878939  Biso 1.000000     V
