#======================================================================

# CRYSTAL DATA

#----------------------------------------------------------------------

data_VESTA_phase_1


_pd_phase_name                         MOF
_cell_length_a                         12.40200
_cell_length_b                         17.43700
_cell_length_c                         17.43700
_cell_angle_alpha                      82.73400
_cell_angle_beta                       69.16800
_cell_angle_gamma                      69.16800
_symmetry_space_group_name_H-M         "P 1"
_symmetry_Int_Tables_number            1

loop_
_symmetry_equiv_pos_as_xyz
   "x, y, z"

loop_
   _atom_site_label
   _atom_site_occupancy
   _atom_site_fract_x
   _atom_site_fract_y
   _atom_site_fract_z
   _atom_site_adp_type
   _atom_site_B_iso_or_equiv
   _atom_site_type_symbol
    H   1.0     0.432293     0.926051     0.073547  Biso 1.000000     H
    H   1.0     0.648983     0.824099     0.224689  Biso 1.000000     H
    H   1.0     0.757442     0.737794     0.078486  Biso 1.000000     H
    H   1.0     0.466215     0.093536     0.130035  Biso 1.000000     H
    H   1.0     0.134400     0.045488     0.242448  Biso 1.000000     H
    H   1.0     0.091193     0.193242     0.157557  Biso 1.000000     H
    H   1.0     0.676778     0.970808     0.214692  Biso 1.000000     H
    H   1.0     0.361992     0.060516     0.399710  Biso 1.000000     H
    H   1.0     0.549203     0.110656     0.401534  Biso 1.000000     H
    H   1.0     0.326989     0.816626     0.321995  Biso 1.000000     H
    H   1.0     0.152292     0.028287     0.395038  Biso 1.000000     H
    H   1.0     0.006008     0.969626     0.492254  Biso 1.000000     H
    H   1.0     0.398223     0.110105     0.959653  Biso 1.000000     H
    H   1.0     0.663887     0.212232     0.808501  Biso 1.000000     H
    H   1.0     0.540243     0.298202     0.954923  Biso 1.000000     H
    H   1.0     0.669187     0.942699     0.903183  Biso 1.000000     H
    H   1.0     0.400064     0.990946     0.792204  Biso 1.000000     H
    H   1.0     0.420214     0.843205     0.877142  Biso 1.000000     H
    H   1.0     0.828641     0.065292     0.819047  Biso 1.000000     H
    H   1.0     0.801472     0.975150     0.634210  Biso 1.000000     H
    H   1.0     0.027802     0.925069     0.632574  Biso 1.000000     H
    H   1.0     0.431973     0.219120     0.710766  Biso 1.000000     H
    H   1.0     0.554834     0.000000     0.638727  Biso 1.000000     H
    H   1.0     0.434191     0.065115     0.541472  Biso 1.000000     H
    H   1.0     0.760774     0.442343     0.406592  Biso 1.000000     H
    H   1.0     0.116355     0.292056     0.304705  Biso 1.000000     H
    H   1.0     0.078164     0.438656     0.219053  Biso 1.000000     H
    H   1.0     0.840418     0.386828     0.609464  Biso 1.000000     H
    H   1.0     0.620157     0.274701     0.562125  Biso 1.000000     H
    H   1.0     0.492300     0.360280     0.709516  Biso 1.000000     H
    H   1.0     0.134520     0.301463     0.450980  Biso 1.000000     H
    H   1.0    -0.007652     0.117034     0.577489  Biso 1.000000     H
    H   1.0     0.181558     0.115243     0.627415  Biso 1.000000     H
    H   1.0     0.903080     0.194372     0.297825  Biso 1.000000     H
    H   1.0     0.790780     0.121527     0.545547  Biso 1.000000     H
    H   1.0     0.752208     0.024499     0.451460  Biso 1.000000     H
    H   1.0     0.577373     0.591693     0.626217  Biso 1.000000     H
    H   1.0     0.692079     0.742575     0.728516  Biso 1.000000     H
    H   1.0     0.715366     0.595917     0.814087  Biso 1.000000     H
    H   1.0     0.802185     0.647372     0.424140  Biso 1.000000     H
    H   1.0     0.422588     0.760220     0.471280  Biso 1.000000     H
    H   1.0     0.527382     0.674219     0.324172  Biso 1.000000     H
    H   1.0     0.866115     0.732776     0.581912  Biso 1.000000     H
    H   1.0     0.665452     0.917811     0.456182  Biso 1.000000     H
    H   1.0     0.902736     0.919700     0.406242  Biso 1.000000     H
    H   1.0     0.361412     0.840548     0.736152  Biso 1.000000     H
    H   1.0     0.423757     0.913278     0.488411  Biso 1.000000     H
    H   1.0     0.194492     0.000000     0.582617  Biso 1.000000     H
    H   1.0     0.902346     0.961335     0.109787  Biso 1.000000     H
    H   1.0     0.155313     0.810898     0.212196  Biso 1.000000     H
    H   1.0     0.031756     0.957681     0.297542  Biso 1.000000     H
    H   1.0     0.162276     0.905223     0.941270  Biso 1.000000     H
    H   1.0     0.907110     0.793277     0.989070  Biso 1.000000     H
    H   1.0     0.926116     0.879022     0.841816  Biso 1.000000     H
    H   1.0     0.320118     0.820650     0.065217  Biso 1.000000     H
    H   1.0     0.295693     0.635536     0.973092  Biso 1.000000     H
    H   1.0     0.534834     0.633781     0.922855  Biso 1.000000     H
    H   1.0     0.936573     0.711868     0.219382  Biso 1.000000     H
    H   1.0     0.049700     0.640072     0.000000  Biso 1.000000     H
    H   1.0     0.939581     0.542534     0.065063  Biso 1.000000     H
    H   1.0     0.940565     0.074367     0.924035  Biso 1.000000     H
    H   1.0     0.145571     0.224762     0.821660  Biso 1.000000     H
    H   1.0     0.253900     0.078112     0.736111  Biso 1.000000     H
    H   1.0     0.972706     0.130701     0.092745  Biso 1.000000     H
    H   1.0     0.640320     0.243121     0.045445  Biso 1.000000     H
    H   1.0     0.597920     0.157588     0.192853  Biso 1.000000     H
    H   1.0     0.172867     0.215527     0.968349  Biso 1.000000     H
    H   1.0     0.867499     0.400686     0.060315  Biso 1.000000     H
    H   1.0     0.041717     0.402306     0.110819  Biso 1.000000     H
    H   1.0     0.834661     0.322846     0.814459  Biso 1.000000     H
    H   1.0     0.658208     0.395936     0.028453  Biso 1.000000     H
    H   1.0     0.514222     0.492907     0.968148  Biso 1.000000     H
    H   1.0     0.071647     0.627106     0.590078  Biso 1.000000     H
    H   1.0     0.185485     0.729191     0.741683  Biso 1.000000     H
    H   1.0     0.207524     0.815724     0.595607  Biso 1.000000     H
    H   1.0     0.296674     0.424104     0.646399  Biso 1.000000     H
    H   1.0     0.929606     0.471851     0.758686  Biso 1.000000     H
    H   1.0     0.021628     0.324330     0.673369  Biso 1.000000     H
    H   1.0     0.360558     0.582397     0.731080  Biso 1.000000     H
    H   1.0     0.159995     0.456781     0.916333  Biso 1.000000     H
    H   1.0     0.397171     0.407193     0.918382  Biso 1.000000     H
    H   1.0     0.869184     0.736738     0.838468  Biso 1.000000     H
    H   1.0     0.930247     0.489252     0.911889  Biso 1.000000     H
    H   1.0     0.701008     0.583940     0.000000  Biso 1.000000     H
    H   1.0     0.254256     0.406917     0.442342  Biso 1.000000     H
    H   1.0     0.622154     0.305583     0.291067  Biso 1.000000     H
    H   1.0     0.584993     0.219373     0.437352  Biso 1.000000     H
    H   1.0     0.333373     0.610842     0.386262  Biso 1.000000     H
    H   1.0     0.112852     0.562951     0.274734  Biso 1.000000     H
    H   1.0    -0.014786     0.710655     0.359761  Biso 1.000000     H
    H   1.0     0.639990     0.451652     0.301399  Biso 1.000000     H
    H   1.0     0.497810     0.578649     0.117139  Biso 1.000000     H
    H   1.0     0.687251     0.628294     0.115436  Biso 1.000000     H
    H   1.0     0.396276     0.298765     0.194062  Biso 1.000000     H
    H   1.0     0.282868     0.546563     0.121659  Biso 1.000000     H
    H   1.0     0.244173     0.452450     0.024737  Biso 1.000000     H
    C   1.0     0.505526     0.885912     0.095013  Biso 1.000000     C
    C   1.0     0.619906     0.832796     0.171513  Biso 1.000000     C
    C   1.0     0.673153     0.789392     0.099165  Biso 1.000000     C
    C   1.0     0.369754     0.100643     0.149338  Biso 1.000000     C
    C   1.0     0.196947     0.077382     0.206688  Biso 1.000000     C
    C   1.0     0.175372     0.150410     0.164625  Biso 1.000000     C
    C   1.0     0.613654     0.000000     0.265624  Biso 1.000000     C
    C   1.0     0.457846     0.041239     0.361691  Biso 1.000000     C
    C   1.0     0.550856     0.066032     0.362905  Biso 1.000000     C
    C   1.0     0.258141     0.870927     0.355499  Biso 1.000000     C
    C   1.0     0.160146     0.998485     0.394323  Biso 1.000000     C
    C   1.0     0.093103     0.951393     0.442811  Biso 1.000000     C
    C   1.0     0.452773     0.150252     0.938222  Biso 1.000000     C
    C   1.0     0.590467     0.203438     0.861722  Biso 1.000000     C
    C   1.0     0.528143     0.246681     0.934171  Biso 1.000000     C
    C   1.0     0.598791     0.935614     0.884252  Biso 1.000000     C
    C   1.0     0.459200     0.958993     0.827649  Biso 1.000000     C
    C   1.0     0.468844     0.885967     0.869741  Biso 1.000000     C
    C   1.0     0.857352     0.024369     0.768191  Biso 1.000000     C
    C   1.0     0.839946     0.994527     0.672218  Biso 1.000000     C
    C   1.0     0.958912     0.969751     0.671104  Biso 1.000000     C
    C   1.0     0.450994     0.164633     0.677524  Biso 1.000000     C
    C   1.0     0.519546     0.036902     0.639217  Biso 1.000000     C
    C   1.0     0.453680     0.083666     0.590718  Biso 1.000000     C
    C   1.0     0.855560     0.421186     0.366564  Biso 1.000000     C
    C   1.0     0.033958     0.345136     0.313516  Biso 1.000000     C
    C   1.0     0.014635     0.417673     0.270428  Biso 1.000000     C
    C   1.0     0.763042     0.367706     0.616729  Biso 1.000000     C
    C   1.0     0.647134     0.310518     0.593825  Biso 1.000000     C
    C   1.0     0.583634     0.352910     0.666674  Biso 1.000000     C
    C   1.0     0.122147     0.250706     0.492010  Biso 1.000000     C
    C   1.0     0.050338     0.154949     0.558010  Biso 1.000000     C
    C   1.0     0.144678     0.153732     0.582679  Biso 1.000000     C
    C   1.0     0.867878     0.160947     0.352234  Biso 1.000000     C
    C   1.0     0.809240     0.122227     0.479861  Biso 1.000000     C
    C   1.0     0.790075     0.073834     0.433022  Biso 1.000000     C
    C   1.0     0.610598     0.613019     0.666368  Biso 1.000000     C
    C   1.0     0.671871     0.689388     0.719638  Biso 1.000000     C
    C   1.0     0.682284     0.616813     0.762678  Biso 1.000000     C
    C   1.0     0.712948     0.666650     0.416856  Biso 1.000000     C
    C   1.0     0.517017     0.724224     0.439654  Biso 1.000000     C
    C   1.0     0.568603     0.681585     0.366956  Biso 1.000000     C
    C   1.0     0.843824     0.783727     0.541116  Biso 1.000000     C
    C   1.0     0.741970     0.879805     0.475523  Biso 1.000000     C
    C   1.0     0.859740     0.881060     0.450835  Biso 1.000000     C
    C   1.0     0.347182     0.873990     0.681751  Biso 1.000000     C
    C   1.0     0.377335     0.912657     0.554116  Biso 1.000000     C
    C   1.0     0.263151     0.961258     0.601015  Biso 1.000000     C
    C   1.0     0.956908     0.940155     0.149939  Biso 1.000000     C
    C   1.0     0.081892     0.864022     0.203250  Biso 1.000000     C
    C   1.0     0.019619     0.936655     0.246183  Biso 1.000000     C
    C   1.0     0.092051     0.886141     0.934128  Biso 1.000000     C
    C   1.0     0.965831     0.829041     0.957279  Biso 1.000000     C
    C   1.0     0.974894     0.871543     0.884501  Biso 1.000000     C
    C   1.0     0.348716     0.769784     0.024330  Biso 1.000000     C
    C   1.0     0.334256     0.673523     0.992410  Biso 1.000000     C
    C   1.0     0.453266     0.672329     0.967576  Biso 1.000000     C
    C   1.0     0.955691     0.678701     0.164823  Biso 1.000000     C
    C   1.0     0.011414     0.640676     0.037006  Biso 1.000000     C
    C   1.0     0.958768     0.591882     0.083693  Biso 1.000000     C
    C   1.0     0.001332     0.095554     0.883874  Biso 1.000000     C
    C   1.0     0.116271     0.171665     0.830572  Biso 1.000000     C
    C   1.0     0.169458     0.099094     0.787541  Biso 1.000000     C
    C   1.0     0.876198     0.149907     0.100015  Biso 1.000000     C
    C   1.0     0.703098     0.207254     0.077138  Biso 1.000000     C
    C   1.0     0.681930     0.164875     0.149992  Biso 1.000000     C
    C   1.0     0.109653     0.266374     0.000000  Biso 1.000000     C
    C   1.0     0.963352     0.362666     0.041074  Biso 1.000000     C
    C   1.0     0.043498     0.363787     0.066043  Biso 1.000000     C
    C   1.0     0.766088     0.356281     0.868880  Biso 1.000000     C
    C   1.0     0.668817     0.394970     0.996519  Biso 1.000000     C
    C   1.0     0.601329     0.443488     0.949697  Biso 1.000000     C
    C   1.0     0.104477     0.667311     0.611692  Biso 1.000000     C
    C   1.0     0.165260     0.720508     0.688434  Biso 1.000000     C
    C   1.0     0.175038     0.764026     0.616153  Biso 1.000000     C
    C   1.0     0.207368     0.416934     0.665626  Biso 1.000000     C
    C   1.0     0.011318     0.440044     0.722904  Biso 1.000000     C
    C   1.0     0.062889     0.367138     0.680621  Biso 1.000000     C
    C   1.0     0.338291     0.541677     0.782111  Biso 1.000000     C
    C   1.0     0.236480     0.476142     0.878301  Biso 1.000000     C
    C   1.0     0.354198     0.451621     0.879626  Biso 1.000000     C
    C   1.0     0.854592     0.682481     0.872049  Biso 1.000000     C
    C   1.0     0.884090     0.554977     0.911066  Biso 1.000000     C
    C   1.0     0.769919     0.602120     0.959454  Biso 1.000000     C
    C   1.0     0.349066     0.366974     0.420868  Biso 1.000000     C
    C   1.0     0.539998     0.314195     0.344304  Biso 1.000000     C
    C   1.0     0.521179     0.270827     0.416686  Biso 1.000000     C
    C   1.0     0.255959     0.617997     0.367227  Biso 1.000000     C
    C   1.0     0.139924     0.594812     0.310338  Biso 1.000000     C
    C   1.0     0.076532     0.667820     0.352455  Biso 1.000000     C
    C   1.0     0.627656     0.492770     0.250692  Biso 1.000000     C
    C   1.0     0.555850     0.559024     0.155019  Biso 1.000000     C
    C   1.0     0.650265     0.583575     0.153868  Biso 1.000000     C
    C   1.0     0.360748     0.353188     0.160768  Biso 1.000000     C
    C   1.0     0.301540     0.480856     0.122277  Biso 1.000000     C
    C   1.0     0.282326     0.433996     0.073932  Biso 1.000000     C
    N   1.0     0.513297     0.894198     0.168624  Biso 1.000000     N
    N   1.0     0.599959     0.823153     0.050803  Biso 1.000000     N
    N   1.0     0.320612     0.045913     0.196914  Biso 1.000000     N
    N   1.0     0.285488     0.165007     0.128160  Biso 1.000000     N
    N   1.0     0.493929     0.000000     0.299734  Biso 1.000000     N
    N   1.0     0.657331     0.024107     0.301943  Biso 1.000000     N
    N   1.0     0.264949     0.947130     0.338898  Biso 1.000000     N
    N   1.0     0.155681     0.870280     0.418059  Biso 1.000000     N
    N   1.0     0.542307     0.142085     0.864559  Biso 1.000000     N
    N   1.0     0.440374     0.212893     0.982523  Biso 1.000000     N
    N   1.0     0.542036     0.990379     0.836920  Biso 1.000000     N
    N   1.0     0.557670     0.871282     0.905720  Biso 1.000000     N
    N   1.0     0.779821     0.016273     0.734052  Biso 1.000000     N
    N   1.0     0.962381     0.000000     0.732013  Biso 1.000000     N
    N   1.0     0.517620     0.088574     0.694323  Biso 1.000000     N
    N   1.0     0.410291     0.164899     0.615130  Biso 1.000000     N
    N   1.0     0.937185     0.347637     0.374685  Biso 1.000000     N
    N   1.0     0.905662     0.465744     0.304139  Biso 1.000000     N
    N   1.0     0.761217     0.319985     0.562251  Biso 1.000000     N
    N   1.0     0.657583     0.389264     0.681043  Biso 1.000000     N
    N   1.0     0.036302     0.216721     0.500260  Biso 1.000000     N
    N   1.0     0.190424     0.214504     0.540468  Biso 1.000000     N
    N   1.0     0.858677     0.177523     0.428298  Biso 1.000000     N
    N   1.0     0.827575     0.098522     0.351862  Biso 1.000000     N
    N   1.0     0.626299     0.686724     0.658364  Biso 1.000000     N
    N   1.0     0.642821     0.568534     0.728834  Biso 1.000000     N
    N   1.0     0.609049     0.714674     0.471203  Biso 1.000000     N
    N   1.0     0.693227     0.644977     0.352649  Biso 1.000000     N
    N   1.0     0.732143     0.817818     0.533033  Biso 1.000000     N
    N   1.0     0.924228     0.820087     0.492786  Biso 1.000000     N
    N   1.0     0.430461     0.857261     0.605635  Biso 1.000000     N
    N   1.0     0.244232     0.936610     0.682183  Biso 1.000000     N
    N   1.0     0.033668     0.866506     0.142015  Biso 1.000000     N
    N   1.0     0.944570     0.984778     0.212320  Biso 1.000000     N
    N   1.0     0.035889     0.838371     0.988647  Biso 1.000000     N
    N   1.0     0.050571     0.907837     0.869967  Biso 1.000000     N
    N   1.0     0.271076     0.735707     0.016304  Biso 1.000000     N
    N   1.0     0.456875     0.733227     0.000000  Biso 1.000000     N
    N   1.0     0.009242     0.695791     0.088781  Biso 1.000000     N
    N   1.0     0.915428     0.616117     0.164979  Biso 1.000000     N
    N   1.0     0.009346     0.169162     0.891859  Biso 1.000000     N
    N   1.0     0.095904     0.050978     0.821415  Biso 1.000000     N
    N   1.0     0.826689     0.197676     0.045540  Biso 1.000000     N
    N   1.0     0.792232     0.128415     0.164344  Biso 1.000000     N
    N   1.0     0.000000     0.300507     0.000000  Biso 1.000000     N
    N   1.0     0.150028     0.302875     0.024096  Biso 1.000000     N
    N   1.0     0.773454     0.339613     0.944944  Biso 1.000000     N
    N   1.0     0.663451     0.418819     0.868528  Biso 1.000000     N
    N   1.0     0.120403     0.658979     0.685348  Biso 1.000000     N
    N   1.0     0.135900     0.730218     0.567636  Biso 1.000000     N
    N   1.0     0.103434     0.471524     0.713316  Biso 1.000000     N
    N   1.0     0.187585     0.352638     0.644209  Biso 1.000000     N
    N   1.0     0.226661     0.533513     0.816199  Biso 1.000000     N
    N   1.0     0.418657     0.493532     0.818585  Biso 1.000000     N
    N   1.0     0.937621     0.606260     0.855585  Biso 1.000000     N
    N   1.0     0.751412     0.683204     0.934588  Biso 1.000000     N
    N   1.0     0.430287     0.375373     0.347229  Biso 1.000000     N
    N   1.0     0.399594     0.304370     0.465085  Biso 1.000000     N
    N   1.0     0.254024     0.563309     0.319784  Biso 1.000000     N
    N   1.0     0.150557     0.682373     0.388621  Biso 1.000000     N
    N   1.0     0.541778     0.501183     0.216687  Biso 1.000000     N
    N   1.0     0.696006     0.541200     0.214583  Biso 1.000000     N
    N   1.0     0.351358     0.429281     0.177400  Biso 1.000000     N
    N   1.0     0.320194     0.352809     0.098470  Biso 1.000000     N
   Zn   1.0     0.396053     0.981711     0.251620  Biso 1.000000    Zn
   Zn   1.0     0.095527     0.776257     0.465551  Biso 1.000000    Zn
   Zn   1.0     0.595788     0.054353     0.781793  Biso 1.000000    Zn
   Zn   1.0     0.303321     0.258651     0.567487  Biso 1.000000    Zn
   Zn   1.0     0.902991     0.264853     0.462394  Biso 1.000000    Zn
   Zn   1.0     0.814203     0.051245     0.258016  Biso 1.000000    Zn
   Zn   1.0     0.596099     0.769873     0.571042  Biso 1.000000    Zn
   Zn   1.0     0.089796     0.984510     0.775946  Biso 1.000000    Zn
   Zn   1.0     0.087045     0.783439     0.054571  Biso 1.000000    Zn
   Zn   1.0     0.808966     0.568093     0.258698  Biso 1.000000    Zn
   Zn   1.0     0.904925     0.252296     0.979236  Biso 1.000000    Zn
   Zn   1.0     0.602697     0.466339     0.774742  Biso 1.000000    Zn
   Zn   1.0     0.090597     0.571407     0.768294  Biso 1.000000    Zn
   Zn   1.0     0.597084     0.777126     0.982280  Biso 1.000000    Zn
   Zn   1.0     0.395698     0.463339     0.264721  Biso 1.000000    Zn
   Zn   1.0     0.306948     0.258898     0.051195  Biso 1.000000    Zn
