#======================================================================

# CRYSTAL DATA

#----------------------------------------------------------------------

data_VESTA_phase_1


_pd_phase_name                         MOF
_cell_length_a                         12.57100
_cell_length_b                         17.80600
_cell_length_c                         17.81300
_cell_angle_alpha                      82.92600
_cell_angle_beta                       69.45500
_cell_angle_gamma                      69.44500
_symmetry_space_group_name_H-M         "P 1"
_symmetry_Int_Tables_number            1

loop_
_symmetry_equiv_pos_as_xyz
   "x, y, z"

loop_
   _atom_site_label
   _atom_site_occupancy
   _atom_site_fract_x
   _atom_site_fract_y
   _atom_site_fract_z
   _atom_site_adp_type
   _atom_site_B_iso_or_equiv
   _atom_site_type_symbol
    H   1.0     0.114454     0.793804     0.318891  Biso 1.000000     H
    H   1.0     0.000000     0.038154     0.378593  Biso 1.000000     H
    H   1.0     0.128014     0.947468     0.475408  Biso 1.000000     H
    H   1.0     0.160905     0.890106     0.073698  Biso 1.000000     H
    H   1.0     0.007722     0.711869     0.081345  Biso 1.000000     H
    H   1.0     0.887685     0.800191     0.221738  Biso 1.000000     H
    H   1.0     0.877897     0.096427     0.125089  Biso 1.000000     H
    H   1.0     0.147942     0.047940     0.230106  Biso 1.000000     H
    H   1.0     0.127897     0.192436     0.147044  Biso 1.000000     H
    H   1.0     0.732989     0.934711     0.212833  Biso 1.000000     H
    H   1.0     0.750546     0.066481     0.386844  Biso 1.000000     H
    H   1.0     0.513418     0.106915     0.394647  Biso 1.000000     H
    H   1.0     0.228093     0.206348     0.680759  Biso 1.000000     H
    H   1.0     0.415918     0.961804     0.621922  Biso 1.000000     H
    H   1.0     0.550096     0.052222     0.524672  Biso 1.000000     H
    H   1.0     0.124081     0.110268     0.927162  Biso 1.000000     H
    H   1.0     0.801518     0.287765     0.918019  Biso 1.000000     H
    H   1.0     0.911134     0.199604     0.777492  Biso 1.000000     H
    H   1.0     0.099501     0.903908     0.875436  Biso 1.000000     H
    H   1.0     0.425955     0.952125     0.770039  Biso 1.000000     H
    H   1.0     0.466965     0.807654     0.853125  Biso 1.000000     H
    H   1.0     0.881524     0.065503     0.787461  Biso 1.000000     H
    H   1.0     0.202699     0.933623     0.613242  Biso 1.000000     H
    H   1.0     0.013188     0.893601     0.605463  Biso 1.000000     H
    H   1.0     0.183720     0.180921     0.293737  Biso 1.000000     H
    H   1.0     0.128276     0.121503     0.538046  Biso 1.000000     H
    H   1.0     0.352904     0.024893     0.447678  Biso 1.000000     H
    H   1.0     0.984725     0.426605     0.389811  Biso 1.000000     H
    H   1.0     0.839204     0.417958     0.211910  Biso 1.000000     H
    H   1.0     0.860016     0.277479     0.300177  Biso 1.000000     H
    H   1.0     0.753468     0.374729     0.596007  Biso 1.000000     H
    H   1.0     0.127867     0.270034     0.548190  Biso 1.000000     H
    H   1.0     0.024455     0.353036     0.692714  Biso 1.000000     H
    H   1.0     0.696595     0.287165     0.434378  Biso 1.000000     H
    H   1.0     0.886650     0.113043     0.566349  Biso 1.000000     H
    H   1.0     0.657138     0.105537     0.606654  Biso 1.000000     H
    H   1.0     0.658802     0.818946     0.706124  Biso 1.000000     H
    H   1.0     0.788182     0.878221     0.461866  Biso 1.000000     H
    H   1.0     0.825003     0.975559     0.552540  Biso 1.000000     H
    H   1.0     0.801066     0.573013     0.610113  Biso 1.000000     H
    H   1.0     0.469945     0.581453     0.787797  Biso 1.000000     H
    H   1.0     0.438717     0.721862     0.699454  Biso 1.000000     H
    H   1.0     0.724929     0.624402     0.403413  Biso 1.000000     H
    H   1.0     0.945583     0.730086     0.452515  Biso 1.000000     H
    H   1.0     0.069929     0.647127     0.308032  Biso 1.000000     H
    H   1.0     0.418375     0.712578     0.565231  Biso 1.000000     H
    H   1.0     0.566784     0.886677     0.433541  Biso 1.000000     H
    H   1.0     0.369401     0.894786     0.393515  Biso 1.000000     H
    H   1.0     0.614412     0.318796     0.793918  Biso 1.000000     H
    H   1.0     0.500167     0.378625     0.038077  Biso 1.000000     H
    H   1.0     0.628179     0.475390     0.947409  Biso 1.000000     H
    H   1.0     0.660940     0.073590     0.890125  Biso 1.000000     H
    H   1.0     0.507750     0.081418     0.711904  Biso 1.000000     H
    H   1.0     0.387624     0.221795     0.800307  Biso 1.000000     H
    H   1.0     0.377832     0.125089     0.096493  Biso 1.000000     H
    H   1.0     0.647981     0.230074     0.047887  Biso 1.000000     H
    H   1.0     0.627893     0.147122     0.192401  Biso 1.000000     H
    H   1.0     0.232971     0.212848     0.934713  Biso 1.000000     H
    H   1.0     0.250500     0.386798     0.066557  Biso 1.000000     H
    H   1.0     0.013376     0.394629     0.106915  Biso 1.000000     H
    H   1.0     0.728048     0.680807     0.206282  Biso 1.000000     H
    H   1.0     0.915983     0.621845     0.961927  Biso 1.000000     H
    H   1.0     0.050132     0.524642     0.052327  Biso 1.000000     H
    H   1.0     0.623983     0.927227     0.110294  Biso 1.000000     H
    H   1.0     0.301595     0.917906     0.287778  Biso 1.000000     H
    H   1.0     0.411214     0.777393     0.199536  Biso 1.000000     H
    H   1.0     0.599523     0.875392     0.903891  Biso 1.000000     H
    H   1.0     0.925926     0.770027     0.952216  Biso 1.000000     H
    H   1.0     0.966992     0.853007     0.807730  Biso 1.000000     H
    H   1.0     0.381481     0.787403     0.065544  Biso 1.000000     H
    H   1.0     0.702733     0.613239     0.933597  Biso 1.000000     H
    H   1.0     0.513181     0.605434     0.893645  Biso 1.000000     H
    H   1.0     0.683865     0.293647     0.180852  Biso 1.000000     H
    H   1.0     0.628150     0.538104     0.121560  Biso 1.000000     H
    H   1.0     0.852754     0.447762     0.024900  Biso 1.000000     H
    H   1.0     0.484797     0.389814     0.426522  Biso 1.000000     H
    H   1.0     0.339104     0.211897     0.418055  Biso 1.000000     H
    H   1.0     0.359986     0.300083     0.277561  Biso 1.000000     H
    H   1.0     0.253501     0.595922     0.374757  Biso 1.000000     H
    H   1.0     0.627871     0.548216     0.270025  Biso 1.000000     H
    H   1.0     0.524408     0.692723     0.353136  Biso 1.000000     H
    H   1.0     0.196565     0.434397     0.287205  Biso 1.000000     H
    H   1.0     0.386688     0.566253     0.113025  Biso 1.000000     H
    H   1.0     0.157146     0.606630     0.105543  Biso 1.000000     H
    H   1.0     0.158770     0.706166     0.819061  Biso 1.000000     H
    H   1.0     0.288170     0.461762     0.878214  Biso 1.000000     H
    H   1.0     0.324951     0.552411     0.975597  Biso 1.000000     H
    H   1.0     0.301055     0.610066     0.573148  Biso 1.000000     H
    H   1.0     0.969937     0.787763     0.581407  Biso 1.000000     H
    H   1.0     0.938698     0.699501     0.721831  Biso 1.000000     H
    H   1.0     0.224915     0.403454     0.624423  Biso 1.000000     H
    H   1.0     0.445595     0.452447     0.730141  Biso 1.000000     H
    H   1.0     0.570008     0.307980     0.647076  Biso 1.000000     H
    H   1.0     0.918437     0.565163     0.712584  Biso 1.000000     H
    H   1.0     0.066728     0.433591     0.886746  Biso 1.000000     H
    H   1.0     0.869443     0.393491     0.894825  Biso 1.000000     H
    C   1.0     0.100356     0.847746     0.348743  Biso 1.000000     C
    C   1.0     0.042343     0.973665     0.380537  Biso 1.000000     C
    C   1.0     0.105999     0.928488     0.428883  Biso 1.000000     C
    C   1.0     0.103717     0.852994     0.095175  Biso 1.000000     C
    C   1.0     0.022607     0.761685     0.100628  Biso 1.000000     C
    C   1.0     0.962022     0.806217     0.170000  Biso 1.000000     C
    C   1.0     0.948505     0.103049     0.142710  Biso 1.000000     C
    C   1.0     0.088638     0.079512     0.196185  Biso 1.000000     C
    C   1.0     0.079164     0.150825     0.154933  Biso 1.000000     C
    C   1.0     0.705174     0.975768     0.261647  Biso 1.000000     C
    C   1.0     0.712043     0.044613     0.351897  Biso 1.000000     C
    C   1.0     0.594031     0.064573     0.356097  Biso 1.000000     C
    C   1.0     0.297304     0.152311     0.651080  Biso 1.000000     C
    C   1.0     0.396076     0.026292     0.619734  Biso 1.000000     C
    C   1.0     0.462917     0.071344     0.571169  Biso 1.000000     C
    C   1.0     0.051723     0.147212     0.905257  Biso 1.000000     C
    C   1.0     0.885412     0.238131     0.899040  Biso 1.000000     C
    C   1.0     0.939171     0.193681     0.829585  Biso 1.000000     C
    C   1.0     0.194254     0.897223     0.857728  Biso 1.000000     C
    C   1.0     0.364278     0.920607     0.804035  Biso 1.000000     C
    C   1.0     0.384663     0.849309     0.845313  Biso 1.000000     C
    C   1.0     0.942931     0.024471     0.738594  Biso 1.000000     C
    C   1.0     0.107716     0.955590     0.648234  Biso 1.000000     C
    C   1.0     0.013580     0.935803     0.644054  Biso 1.000000     C
    C   1.0     0.199242     0.151156     0.347710  Biso 1.000000     C
    C   1.0     0.172641     0.119525     0.473629  Biso 1.000000     C
    C   1.0     0.284565     0.071270     0.428589  Biso 1.000000     C
    C   1.0     0.949101     0.404840     0.352777  Biso 1.000000     C
    C   1.0     0.873445     0.398874     0.261647  Biso 1.000000     C
    C   1.0     0.882445     0.329452     0.306147  Biso 1.000000     C
    C   1.0     0.841478     0.357198     0.602808  Biso 1.000000     C
    C   1.0     0.034729     0.303885     0.579624  Biso 1.000000     C
    C   1.0     0.983879     0.345103     0.650958  Biso 1.000000     C
    C   1.0     0.717165     0.238361     0.475479  Biso 1.000000     C
    C   1.0     0.813493     0.148053     0.544403  Biso 1.000000     C
    C   1.0     0.699581     0.144010     0.564327  Biso 1.000000     C
    C   1.0     0.698438     0.848751     0.652196  Biso 1.000000     C
    C   1.0     0.766043     0.880329     0.526318  Biso 1.000000     C
    C   1.0     0.784287     0.928936     0.571507  Biso 1.000000     C
    C   1.0     0.706921     0.594708     0.647078  Biso 1.000000     C
    C   1.0     0.534687     0.600563     0.738095  Biso 1.000000     C
    C   1.0     0.518840     0.669954     0.693551  Biso 1.000000     C
    C   1.0     0.801895     0.642216     0.396964  Biso 1.000000     C
    C   1.0     0.918032     0.696050     0.420814  Biso 1.000000     C
    C   1.0     0.979824     0.654840     0.349511  Biso 1.000000     C
    C   1.0     0.431278     0.761463     0.524250  Biso 1.000000     C
    C   1.0     0.506495     0.851755     0.455459  Biso 1.000000     C
    C   1.0     0.408118     0.856102     0.435689  Biso 1.000000     C
    C   1.0     0.600365     0.348676     0.847816  Biso 1.000000     C
    C   1.0     0.542424     0.380534     0.973659  Biso 1.000000     C
    C   1.0     0.606114     0.428856     0.928468  Biso 1.000000     C
    C   1.0     0.603738     0.095114     0.853032  Biso 1.000000     C
    C   1.0     0.522631     0.100661     0.761728  Biso 1.000000     C
    C   1.0     0.461986     0.170024     0.806300  Biso 1.000000     C
    C   1.0     0.448455     0.142718     0.103084  Biso 1.000000     C
    C   1.0     0.588655     0.196176     0.079485  Biso 1.000000     C
    C   1.0     0.579157     0.154982     0.150808  Biso 1.000000     C
    C   1.0     0.205151     0.261651     0.975790  Biso 1.000000     C
    C   1.0     0.212000     0.351868     0.044655  Biso 1.000000     C
    C   1.0     0.093993     0.356081     0.064578  Biso 1.000000     C
    C   1.0     0.797290     0.651100     0.152289  Biso 1.000000     C
    C   1.0     0.896113     0.619691     0.026344  Biso 1.000000     C
    C   1.0     0.962957     0.571149     0.071410  Biso 1.000000     C
    C   1.0     0.551679     0.905275     0.147221  Biso 1.000000     C
    C   1.0     0.385451     0.898966     0.238135  Biso 1.000000     C
    C   1.0     0.439208     0.829518     0.193645  Biso 1.000000     C
    C   1.0     0.694270     0.857676     0.897233  Biso 1.000000     C
    C   1.0     0.864267     0.804000     0.920674  Biso 1.000000     C
    C   1.0     0.884682     0.845224     0.849367  Biso 1.000000     C
    C   1.0     0.442894     0.738545     0.024493  Biso 1.000000     C
    C   1.0     0.607736     0.648216     0.955597  Biso 1.000000     C
    C   1.0     0.513582     0.644024     0.935843  Biso 1.000000     C
    C   1.0     0.699306     0.347665     0.151115  Biso 1.000000     C
    C   1.0     0.672567     0.473660     0.119549  Biso 1.000000     C
    C   1.0     0.784476     0.428634     0.071267  Biso 1.000000     C
    C   1.0     0.449138     0.352760     0.404805  Biso 1.000000     C
    C   1.0     0.373386     0.261626     0.398931  Biso 1.000000     C
    C   1.0     0.382424     0.306085     0.329502  Biso 1.000000     C
    C   1.0     0.341489     0.602751     0.357233  Biso 1.000000     C
    C   1.0     0.534736     0.579626     0.303900  Biso 1.000000     C
    C   1.0     0.483835     0.650948     0.345175  Biso 1.000000     C
    C   1.0     0.217147     0.475478     0.238391  Biso 1.000000     C
    C   1.0     0.313512     0.544341     0.148051  Biso 1.000000     C
    C   1.0     0.199584     0.564299     0.144019  Biso 1.000000     C
    C   1.0     0.198404     0.652195     0.848839  Biso 1.000000     C
    C   1.0     0.266020     0.526241     0.880354  Biso 1.000000     C
    C   1.0     0.284243     0.571417     0.928983  Biso 1.000000     C
    C   1.0     0.206903     0.647049     0.594796  Biso 1.000000     C
    C   1.0     0.034654     0.738070     0.600556  Biso 1.000000     C
    C   1.0     0.018803     0.693565     0.669955  Biso 1.000000     C
    C   1.0     0.301895     0.396977     0.642231  Biso 1.000000     C
    C   1.0     0.418044     0.420770     0.696083  Biso 1.000000     C
    C   1.0     0.479859     0.349476     0.654817  Biso 1.000000     C
    C   1.0     0.931327     0.524203     0.761480  Biso 1.000000     C
    C   1.0     0.006469     0.455475     0.851806  Biso 1.000000     C
    C   1.0     0.908150     0.435670     0.856139  Biso 1.000000     C
    N   1.0     0.013731     0.864354     0.166240  Biso 1.000000     N
    N   1.0     0.782469     0.988015     0.291744  Biso 1.000000     N
    N   1.0     0.005251     0.049345     0.188412  Biso 1.000000     N
    N   1.0     0.039093     0.922123     0.329665  Biso 1.000000     N
    N   1.0     0.990025     0.165561     0.120960  Biso 1.000000     N
    N   1.0     0.142554     0.848407     0.408638  Biso 1.000000     N
    N   1.0     0.113001     0.791360     0.053370  Biso 1.000000     N
    N   1.0     0.589802     0.020519     0.298930  Biso 1.000000     N
    N   1.0     0.044875     0.135784     0.833833  Biso 1.000000     N
    N   1.0     0.062332     0.012110     0.708427  Biso 1.000000     N
    N   1.0     0.243118     0.950864     0.811926  Biso 1.000000     N
    N   1.0     0.290999     0.077980     0.670475  Biso 1.000000     N
    N   1.0     0.276314     0.834662     0.879430  Biso 1.000000     N
    N   1.0     0.399756     0.151490     0.591135  Biso 1.000000     N
    N   1.0     0.957526     0.208674     0.946844  Biso 1.000000     N
    N   1.0     0.908862     0.979892     0.701306  Biso 1.000000     N
    N   1.0     0.930429     0.333542     0.364169  Biso 1.000000     N
    N   1.0     0.824349     0.208138     0.487788  Biso 1.000000     N
    N   1.0     0.943925     0.311569     0.549213  Biso 1.000000     N
    N   1.0     0.118830     0.170254     0.422003  Biso 1.000000     N
    N   1.0     0.860953     0.378970     0.665477  Biso 1.000000     N
    N   1.0     0.301137     0.091421     0.348510  Biso 1.000000     N
    N   1.0     0.916444     0.446487     0.291212  Biso 1.000000     N
    N   1.0     0.638690     0.201220     0.520203  Biso 1.000000     N
    N   1.0     0.628606     0.665935     0.635580  Biso 1.000000     N
    N   1.0     0.520860     0.791484     0.511890  Biso 1.000000     N
    N   1.0     0.804812     0.688019     0.450772  Biso 1.000000     N
    N   1.0     0.711608     0.829416     0.577831  Biso 1.000000     N
    N   1.0     0.905723     0.620632     0.334571  Biso 1.000000     N
    N   1.0     0.740965     0.908822     0.651565  Biso 1.000000     N
    N   1.0     0.654492     0.553016     0.708612  Biso 1.000000     N
    N   1.0     0.360153     0.798891     0.479721  Biso 1.000000     N
    N   1.0     0.513720     0.166206     0.864433  Biso 1.000000     N
    N   1.0     0.282440     0.291729     0.988082  Biso 1.000000     N
    N   1.0     0.505258     0.188377     0.049351  Biso 1.000000     N
    N   1.0     0.539108     0.329636     0.922174  Biso 1.000000     N
    N   1.0     0.489967     0.121019     0.165585  Biso 1.000000     N
    N   1.0     0.642622     0.408570     0.848435  Biso 1.000000     N
    N   1.0     0.613045     0.053349     0.791374  Biso 1.000000     N
    N   1.0     0.089770     0.298937     0.020483  Biso 1.000000     N
    N   1.0     0.544870     0.833825     0.135751  Biso 1.000000     N
    N   1.0     0.562341     0.708398     0.012090  Biso 1.000000     N
    N   1.0     0.743105     0.811915     0.950903  Biso 1.000000     N
    N   1.0     0.791003     0.670459     0.077977  Biso 1.000000     N
    N   1.0     0.776350     0.879331     0.834683  Biso 1.000000     N
    N   1.0     0.899764     0.591154     0.151508  Biso 1.000000     N
    N   1.0     0.457498     0.946823     0.208707  Biso 1.000000     N
    N   1.0     0.408826     0.701254     0.979970  Biso 1.000000     N
    N   1.0     0.430469     0.364111     0.333532  Biso 1.000000     N
    N   1.0     0.324354     0.487744     0.208150  Biso 1.000000     N
    N   1.0     0.443940     0.549184     0.311561  Biso 1.000000     N
    N   1.0     0.618851     0.421977     0.170252  Biso 1.000000     N
    N   1.0     0.360929     0.665430     0.379055  Biso 1.000000     N
    N   1.0     0.801136     0.348507     0.091379  Biso 1.000000     N
    N   1.0     0.416422     0.291220     0.446491  Biso 1.000000     N
    N   1.0     0.138668     0.520215     0.201251  Biso 1.000000     N
    N   1.0     0.128578     0.635592     0.665995  Biso 1.000000     N
    N   1.0     0.020845     0.511888     0.791521  Biso 1.000000     N
    N   1.0     0.304803     0.450757     0.688075  Biso 1.000000     N
    N   1.0     0.211589     0.577811     0.829468  Biso 1.000000     N
    N   1.0     0.405749     0.334573     0.620598  Biso 1.000000     N
    N   1.0     0.240914     0.651523     0.908909  Biso 1.000000     N
    N   1.0     0.154470     0.708559     0.553065  Biso 1.000000     N
    N   1.0     0.860217     0.479660     0.798904  Biso 1.000000     N
   Zn   1.0     0.962639     0.952869     0.243872  Biso 1.000000    Zn
   Zn   1.0     0.951491     0.256627     0.045125  Biso 1.000000    Zn
   Zn   1.0     0.159834     0.047271     0.756361  Biso 1.000000    Zn
   Zn   1.0     0.253013     0.743611     0.955367  Biso 1.000000    Zn
   Zn   1.0     0.956919     0.256012     0.452693  Biso 1.000000    Zn
   Zn   1.0     0.746697     0.454833     0.756488  Biso 1.000000    Zn
   Zn   1.0     0.665998     0.743476     0.547067  Biso 1.000000    Zn
   Zn   1.0     0.958398     0.544738     0.243451  Biso 1.000000    Zn
   Zn   1.0     0.462609     0.243831     0.952946  Biso 1.000000    Zn
   Zn   1.0     0.451463     0.045193     0.256649  Biso 1.000000    Zn
   Zn   1.0     0.659824     0.756358     0.047242  Biso 1.000000    Zn
   Zn   1.0     0.753075     0.955263     0.743633  Biso 1.000000    Zn
   Zn   1.0     0.456952     0.452639     0.255998  Biso 1.000000    Zn
   Zn   1.0     0.246640     0.756443     0.454925  Biso 1.000000    Zn
   Zn   1.0     0.165971     0.547074     0.743542  Biso 1.000000    Zn
   Zn   1.0     0.458398     0.243451     0.544700  Biso 1.000000    Zn
