#======================================================================

# CRYSTAL DATA

#----------------------------------------------------------------------

data_VESTA_phase_1


_pd_phase_name                         MOF
_cell_length_a                         12.60900
_cell_length_b                         17.98500
_cell_length_c                         17.99100
_cell_angle_alpha                      82.73600
_cell_angle_beta                       69.12300
_cell_angle_gamma                      69.13900
_symmetry_space_group_name_H-M         "P 1"
_symmetry_Int_Tables_number            1

loop_
_symmetry_equiv_pos_as_xyz
   "x, y, z"

loop_
   _atom_site_label
   _atom_site_occupancy
   _atom_site_fract_x
   _atom_site_fract_y
   _atom_site_fract_z
   _atom_site_adp_type
   _atom_site_B_iso_or_equiv
   _atom_site_type_symbol
    H   1.0     0.437240     0.892955     0.074112  Biso 1.000000     H
    H   1.0     0.656208     0.797537     0.217315  Biso 1.000000     H
    H   1.0     0.760583     0.712704     0.076334  Biso 1.000000     H
    H   1.0     0.463256     0.093653     0.127820  Biso 1.000000     H
    H   1.0     0.137712     0.045524     0.234267  Biso 1.000000     H
    H   1.0     0.095185     0.188739     0.151830  Biso 1.000000     H
    H   1.0     0.683130     0.937155     0.210492  Biso 1.000000     H
    H   1.0     0.359872     0.061913     0.386938  Biso 1.000000     H
    H   1.0     0.544148     0.109368     0.390244  Biso 1.000000     H
    H   1.0     0.337651     0.790044     0.313824  Biso 1.000000     H
    H   1.0     0.151861     0.030780     0.381803  Biso 1.000000     H
    H   1.0     0.017849     0.939670     0.475037  Biso 1.000000     H
    H   1.0     0.401093     0.108795     0.928113  Biso 1.000000     H
    H   1.0     0.667538     0.203454     0.781112  Biso 1.000000     H
    H   1.0     0.547328     0.287936     0.922452  Biso 1.000000     H
    H   1.0     0.682503     0.908341     0.873754  Biso 1.000000     H
    H   1.0     0.416771     0.955667     0.767049  Biso 1.000000     H
    H   1.0     0.435659     0.812840     0.850051  Biso 1.000000     H
    H   1.0     0.825817     0.062728     0.793416  Biso 1.000000     H
    H   1.0     0.813283     0.942828     0.611446  Biso 1.000000     H
    H   1.0     0.048840     0.896555     0.608677  Biso 1.000000     H
    H   1.0     0.440212     0.210616     0.684211  Biso 1.000000     H
    H   1.0     0.567121     0.968828     0.619981  Biso 1.000000     H
    H   1.0     0.437244     0.058443     0.525029  Biso 1.000000     H
    H   1.0     0.761296     0.425255     0.390578  Biso 1.000000     H
    H   1.0     0.125684     0.281021     0.296504  Biso 1.000000     H
    H   1.0     0.088889     0.422318     0.212181  Biso 1.000000     H
    H   1.0     0.843011     0.371193     0.591535  Biso 1.000000     H
    H   1.0     0.622988     0.265989     0.544946  Biso 1.000000     H
    H   1.0     0.498562     0.348461     0.688242  Biso 1.000000     H
    H   1.0     0.145074     0.288754     0.434480  Biso 1.000000     H
    H   1.0     0.000651     0.113220     0.561121  Biso 1.000000     H
    H   1.0     0.187855     0.111045     0.608456  Biso 1.000000     H
    H   1.0     0.902565     0.184272     0.289262  Biso 1.000000     H
    H   1.0     0.785427     0.118952     0.530672  Biso 1.000000     H
    H   1.0     0.742040     0.026370     0.441252  Biso 1.000000     H
    H   1.0     0.583071     0.570772     0.606625  Biso 1.000000     H
    H   1.0     0.700438     0.716915     0.702210  Biso 1.000000     H
    H   1.0     0.720854     0.576033     0.787236  Biso 1.000000     H
    H   1.0     0.807928     0.625105     0.406150  Biso 1.000000     H
    H   1.0     0.433411     0.733081     0.455540  Biso 1.000000     H
    H   1.0     0.534506     0.650459     0.312510  Biso 1.000000     H
    H   1.0     0.871699     0.705985     0.560431  Biso 1.000000     H
    H   1.0     0.671421     0.888260     0.442536  Biso 1.000000     H
    H   1.0     0.903504     0.892278     0.395924  Biso 1.000000     H
    H   1.0     0.375736     0.813699     0.710282  Biso 1.000000     H
    H   1.0     0.435379     0.880502     0.469347  Biso 1.000000     H
    H   1.0     0.210630     0.976296     0.560425  Biso 1.000000     H
    H   1.0     0.901075     0.928246     0.108716  Biso 1.000000     H
    H   1.0     0.167362     0.781134     0.203373  Biso 1.000000     H
    H   1.0     0.047077     0.922440     0.287940  Biso 1.000000     H
    H   1.0     0.182523     0.873819     0.908209  Biso 1.000000     H
    H   1.0     0.916648     0.767107     0.955731  Biso 1.000000     H
    H   1.0     0.935523     0.850081     0.812912  Biso 1.000000     H
    H   1.0     0.325810     0.793469     0.062649  Biso 1.000000     H
    H   1.0     0.313219     0.611494     0.942740  Biso 1.000000     H
    H   1.0     0.548805     0.608658     0.896529  Biso 1.000000     H
    H   1.0     0.940166     0.684266     0.210534  Biso 1.000000     H
    H   1.0     0.067126     0.619944     0.968816  Biso 1.000000     H
    H   1.0     0.937367     0.524878     0.058491  Biso 1.000000     H
    H   1.0     0.937212     0.074153     0.892892  Biso 1.000000     H
    H   1.0     0.156396     0.217342     0.797653  Biso 1.000000     H
    H   1.0     0.260724     0.076372     0.712770  Biso 1.000000     H
    H   1.0     0.963193     0.127900     0.093683  Biso 1.000000     H
    H   1.0     0.637706     0.234329     0.045568  Biso 1.000000     H
    H   1.0     0.595101     0.151891     0.188761  Biso 1.000000     H
    H   1.0     0.183263     0.210585     0.937063  Biso 1.000000     H
    H   1.0     0.859948     0.386872     0.062095  Biso 1.000000     H
    H   1.0     0.044276     0.390139     0.109498  Biso 1.000000     H
    H   1.0     0.837859     0.313784     0.790084  Biso 1.000000     H
    H   1.0     0.651896     0.381883     0.030742  Biso 1.000000     H
    H   1.0     0.517929     0.474988     0.939611  Biso 1.000000     H
    H   1.0     0.082658     0.606714     0.571111  Biso 1.000000     H
    H   1.0     0.200959     0.702247     0.716673  Biso 1.000000     H
    H   1.0     0.221068     0.787237     0.575805  Biso 1.000000     H
    H   1.0     0.308004     0.406133     0.625233  Biso 1.000000     H
    H   1.0     0.933436     0.455617     0.733195  Biso 1.000000     H
    H   1.0     0.034422     0.312592     0.650536  Biso 1.000000     H
    H   1.0     0.371968     0.560441     0.706064  Biso 1.000000     H
    H   1.0     0.171500     0.442496     0.888229  Biso 1.000000     H
    H   1.0     0.403599     0.395742     0.892198  Biso 1.000000     H
    H   1.0     0.875890     0.710344     0.813798  Biso 1.000000     H
    H   1.0     0.935421     0.469341     0.880537  Biso 1.000000     H
    H   1.0     0.710550     0.560397     0.976189  Biso 1.000000     H
    H   1.0     0.261205     0.390592     0.425402  Biso 1.000000     H
    H   1.0     0.625507     0.296441     0.281043  Biso 1.000000     H
    H   1.0     0.588758     0.212139     0.422342  Biso 1.000000     H
    H   1.0     0.342759     0.591468     0.371401  Biso 1.000000     H
    H   1.0     0.122952     0.544955     0.265991  Biso 1.000000     H
    H   1.0    -0.001522     0.688252     0.348494  Biso 1.000000     H
    H   1.0     0.644678     0.434599     0.289061  Biso 1.000000     H
    H   1.0     0.501094     0.560763     0.113092  Biso 1.000000     H
    H   1.0     0.688505     0.607972     0.110800  Biso 1.000000     H
    H   1.0     0.402491     0.289212     0.184290  Biso 1.000000     H
    H   1.0     0.285599     0.530703     0.119048  Biso 1.000000     H
    H   1.0     0.242387     0.441314     0.026334  Biso 1.000000     H
    C   1.0     0.510606     0.854848     0.094110  Biso 1.000000     C
    C   1.0     0.626085     0.805161     0.166542  Biso 1.000000     C
    C   1.0     0.677331     0.762467     0.096806  Biso 1.000000     C
    C   1.0     0.368574     0.100145     0.145809  Biso 1.000000     C
    C   1.0     0.199026     0.076772     0.200066  Biso 1.000000     C
    C   1.0     0.177822     0.147524     0.159218  Biso 1.000000     C
    C   1.0     0.620453     0.977335     0.259294  Biso 1.000000     C
    C   1.0     0.454591     0.042465     0.350880  Biso 1.000000     C
    C   1.0     0.546190     0.065871     0.352882  Biso 1.000000     C
    C   1.0     0.269014     0.842944     0.345408  Biso 1.000000     C
    C   1.0     0.171362     0.966969     0.381532  Biso 1.000000     C
    C   1.0     0.104607     0.921572     0.428083  Biso 1.000000     C
    C   1.0     0.456346     0.146697     0.907113  Biso 1.000000     C
    C   1.0     0.594472     0.195982     0.832729  Biso 1.000000     C
    C   1.0     0.533860     0.238490     0.902665  Biso 1.000000     C
    C   1.0     0.612792     0.901700     0.855780  Biso 1.000000     C
    C   1.0     0.474988     0.924632     0.801343  Biso 1.000000     C
    C   1.0     0.483966     0.854067     0.842516  Biso 1.000000     C
    C   1.0     0.854857     0.023985     0.743218  Biso 1.000000     C
    C   1.0     0.850623     0.961433     0.648724  Biso 1.000000     C
    C   1.0     0.967796     0.938505     0.647117  Biso 1.000000     C
    C   1.0     0.457507     0.157199     0.653409  Biso 1.000000     C
    C   1.0     0.522041     0.032626     0.619206  Biso 1.000000     C
    C   1.0     0.457458     0.077255     0.571809  Biso 1.000000     C
    C   1.0     0.855232     0.405006     0.352880  Biso 1.000000     C
    C   1.0     0.044316     0.332080     0.303958  Biso 1.000000     C
    C   1.0     0.025731     0.401973     0.261499  Biso 1.000000     C
    C   1.0     0.766147     0.353555     0.598443  Biso 1.000000     C
    C   1.0     0.650414     0.299923     0.575875  Biso 1.000000     C
    C   1.0     0.588600     0.340799     0.646684  Biso 1.000000     C
    C   1.0     0.131851     0.240328     0.475136  Biso 1.000000     C
    C   1.0     0.058801     0.149220     0.541237  Biso 1.000000     C
    C   1.0     0.152144     0.147813     0.564628  Biso 1.000000     C
    C   1.0     0.865400     0.153474     0.342584  Biso 1.000000     C
    C   1.0     0.804164     0.118733     0.466986  Biso 1.000000     C
    C   1.0     0.782763     0.072464     0.422425  Biso 1.000000     C
    C   1.0     0.616693     0.591603     0.644824  Biso 1.000000     C
    C   1.0     0.679248     0.665568     0.694648  Biso 1.000000     C
    C   1.0     0.688261     0.595853     0.737403  Biso 1.000000     C
    C   1.0     0.719569     0.643515     0.400025  Biso 1.000000     C
    C   1.0     0.526234     0.698592     0.424027  Biso 1.000000     C
    C   1.0     0.575997     0.657599     0.353375  Biso 1.000000     C
    C   1.0     0.848860     0.756425     0.522175  Biso 1.000000     C
    C   1.0     0.747154     0.851085     0.460659  Biso 1.000000     C
    C   1.0     0.862363     0.853340     0.437611  Biso 1.000000     C
    C   1.0     0.361374     0.845296     0.657302  Biso 1.000000     C
    C   1.0     0.390164     0.880850     0.533175  Biso 1.000000     C
    C   1.0     0.278162     0.928621     0.578551  Biso 1.000000     C
    C   1.0     0.956272     0.907209     0.146626  Biso 1.000000     C
    C   1.0     0.094317     0.832768     0.195915  Biso 1.000000     C
    C   1.0     0.033667     0.902688     0.238465  Biso 1.000000     C
    C   1.0     0.112778     0.855837     0.901621  Biso 1.000000     C
    C   1.0     0.974890     0.801398     0.924654  Biso 1.000000     C
    C   1.0     0.983861     0.842557     0.854095  Biso 1.000000     C
    C   1.0     0.354835     0.743264     0.023913  Biso 1.000000     C
    C   1.0     0.350581     0.648762     0.961352  Biso 1.000000     C
    C   1.0     0.467775     0.647123     0.938455  Biso 1.000000     C
    C   1.0     0.957485     0.653425     0.157145  Biso 1.000000     C
    C   1.0     0.022043     0.619176     0.032613  Biso 1.000000     C
    C   1.0     0.957512     0.571725     0.077268  Biso 1.000000     C
    C   1.0     0.010640     0.094150     0.854827  Biso 1.000000     C
    C   1.0     0.126224     0.166572     0.805234  Biso 1.000000     C
    C   1.0     0.177448     0.096842     0.762514  Biso 1.000000     C
    C   1.0     0.868517     0.145883     0.100174  Biso 1.000000     C
    C   1.0     0.698999     0.200130     0.076808  Biso 1.000000     C
    C   1.0     0.677755     0.159283     0.147550  Biso 1.000000     C
    C   1.0     0.120585     0.259340     0.977304  Biso 1.000000     C
    C   1.0     0.954677     0.350845     0.042582  Biso 1.000000     C
    C   1.0     0.046306     0.352828     0.065964  Biso 1.000000     C
    C   1.0     0.769181     0.345383     0.842957  Biso 1.000000     C
    C   1.0     0.671451     0.381565     0.966939  Biso 1.000000     C
    C   1.0     0.604712     0.428057     0.921535  Biso 1.000000     C
    C   1.0     0.116500     0.644893     0.591782  Biso 1.000000     C
    C   1.0     0.179531     0.694688     0.665449  Biso 1.000000     C
    C   1.0     0.188399     0.737424     0.595740  Biso 1.000000     C
    C   1.0     0.219619     0.400032     0.643633  Biso 1.000000     C
    C   1.0     0.026261     0.424087     0.698701  Biso 1.000000     C
    C   1.0     0.075965     0.353436     0.657692  Biso 1.000000     C
    C   1.0     0.349073     0.522155     0.756469  Biso 1.000000     C
    C   1.0     0.247272     0.460610     0.851071  Biso 1.000000     C
    C   1.0     0.362488     0.437496     0.853306  Biso 1.000000     C
    C   1.0     0.861481     0.657343     0.845359  Biso 1.000000     C
    C   1.0     0.890213     0.533181     0.880879  Biso 1.000000     C
    C   1.0     0.778149     0.578548     0.928582  Biso 1.000000     C
    C   1.0     0.355126     0.352875     0.405119  Biso 1.000000     C
    C   1.0     0.544164     0.303911     0.332128  Biso 1.000000     C
    C   1.0     0.525600     0.261464     0.402022  Biso 1.000000     C
    C   1.0     0.265948     0.598396     0.353712  Biso 1.000000     C
    C   1.0     0.150327     0.575869     0.299971  Biso 1.000000     C
    C   1.0     0.088489     0.646678     0.340863  Biso 1.000000     C
    C   1.0     0.631711     0.475114     0.240505  Biso 1.000000     C
    C   1.0     0.559099     0.540962     0.149168  Biso 1.000000     C
    C   1.0     0.652536     0.564294     0.147709  Biso 1.000000     C
    C   1.0     0.365417     0.342561     0.153498  Biso 1.000000     C
    C   1.0     0.304311     0.467004     0.118793  Biso 1.000000     C
    C   1.0     0.282996     0.422459     0.072460  Biso 1.000000     C
    N   1.0     0.520071     0.863965     0.164571  Biso 1.000000     N
    N   1.0     0.603447     0.794040     0.051027  Biso 1.000000     N
    N   1.0     0.320387     0.046827     0.191497  Biso 1.000000     N
    N   1.0     0.285867     0.162192     0.124709  Biso 1.000000     N
    N   1.0     0.502205     0.986046     0.291278  Biso 1.000000     N
    N   1.0     0.651656     0.024205     0.294790  Biso 1.000000     N
    N   1.0     0.275775     0.916789     0.329028  Biso 1.000000     N
    N   1.0     0.166983     0.842672     0.405074  Biso 1.000000     N
    N   1.0     0.544988     0.137553     0.835803  Biso 1.000000     N
    N   1.0     0.445792     0.207200     0.949695  Biso 1.000000     N
    N   1.0     0.557122     0.954743     0.809803  Biso 1.000000     N
    N   1.0     0.571599     0.839687     0.877157  Biso 1.000000     N
    N   1.0     0.779010     0.015906     0.709926  Biso 1.000000     N
    N   1.0     0.970342     0.978517     0.707065  Biso 1.000000     N
    N   1.0     0.521816     0.083631     0.671033  Biso 1.000000     N
    N   1.0     0.416656     0.156501     0.593597  Biso 1.000000     N
    N   1.0     0.935648     0.334262     0.362140  Biso 1.000000     N
    N   1.0     0.905303     0.448060     0.292548  Biso 1.000000     N
    N   1.0     0.763358     0.308060     0.545373  Biso 1.000000     N
    N   1.0     0.662405     0.374924     0.660843  Biso 1.000000     N
    N   1.0     0.046208     0.208128     0.484208  Biso 1.000000     N
    N   1.0     0.198736     0.205584     0.522328  Biso 1.000000     N
    N   1.0     0.856628     0.170185     0.416045  Biso 1.000000     N
    N   1.0     0.821983     0.094584     0.343292  Biso 1.000000     N
    N   1.0     0.633765     0.662625     0.635731  Biso 1.000000     N
    N   1.0     0.648029     0.549082     0.705739  Biso 1.000000     N
    N   1.0     0.617768     0.689609     0.453512  Biso 1.000000     N
    N   1.0     0.698973     0.622555     0.338311  Biso 1.000000     N
    N   1.0     0.738877     0.789361     0.514529  Biso 1.000000     N
    N   1.0     0.926771     0.793273     0.476973  Biso 1.000000     N
    N   1.0     0.442762     0.827936     0.583427  Biso 1.000000     N
    N   1.0     0.260099     0.905967     0.657513  Biso 1.000000     N
    N   1.0     0.044916     0.835888     0.137458  Biso 1.000000     N
    N   1.0     0.945648     0.949755     0.207172  Biso 1.000000     N
    N   1.0     0.057086     0.809866     0.954695  Biso 1.000000     N
    N   1.0     0.071550     0.877200     0.839652  Biso 1.000000     N
    N   1.0     0.278960     0.709992     0.015814  Biso 1.000000     N
    N   1.0     0.470346     0.707073     0.978466  Biso 1.000000     N
    N   1.0     0.021770     0.671065     0.083576  Biso 1.000000     N
    N   1.0     0.916700     0.593543     0.156488  Biso 1.000000     N
    N   1.0     0.020159     0.164603     0.863995  Biso 1.000000     N
    N   1.0     0.103493     0.051071     0.794026  Biso 1.000000     N
    N   1.0     0.820367     0.191567     0.046863  Biso 1.000000     N
    N   1.0     0.785781     0.124779     0.162214  Biso 1.000000     N
    N   1.0     0.002321     0.291306     0.986079  Biso 1.000000     N
    N   1.0     0.151780     0.294793     0.024211  Biso 1.000000     N
    N   1.0     0.775903     0.329061     0.916790  Biso 1.000000     N
    N   1.0     0.667137     0.405012     0.842663  Biso 1.000000     N
    N   1.0     0.133838     0.635800     0.662692  Biso 1.000000     N
    N   1.0     0.147868     0.705778     0.549158  Biso 1.000000     N
    N   1.0     0.117848     0.453537     0.689735  Biso 1.000000     N
    N   1.0     0.198956     0.338338     0.622654  Biso 1.000000     N
    N   1.0     0.239050     0.514540     0.789395  Biso 1.000000     N
    N   1.0     0.426956     0.476877     0.793276  Biso 1.000000     N
    N   1.0     0.942887     0.583462     0.828029  Biso 1.000000     N
    N   1.0     0.760124     0.657533     0.905950  Biso 1.000000     N
    N   1.0     0.435516     0.362111     0.334353  Biso 1.000000     N
    N   1.0     0.405207     0.292541     0.448148  Biso 1.000000     N
    N   1.0     0.263214     0.545341     0.308168  Biso 1.000000     N
    N   1.0     0.162223     0.660810     0.375057  Biso 1.000000     N
    N   1.0     0.546166     0.484133     0.208257  Biso 1.000000     N
    N   1.0     0.698847     0.522157     0.205627  Biso 1.000000     N
    N   1.0     0.356637     0.416028     0.170264  Biso 1.000000     N
    N   1.0     0.322134     0.343299     0.094558  Biso 1.000000     N
   Zn   1.0     0.405768     0.949706     0.244470  Biso 1.000000    Zn
   Zn   1.0     0.107949     0.751264     0.450468  Biso 1.000000    Zn
   Zn   1.0     0.597997     0.051629     0.756255  Biso 1.000000    Zn
   Zn   1.0     0.311563     0.247423     0.547304  Biso 1.000000    Zn
   Zn   1.0     0.902047     0.254594     0.447979  Biso 1.000000    Zn
   Zn   1.0     0.806988     0.049313     0.252735  Biso 1.000000    Zn
   Zn   1.0     0.605487     0.742641     0.550305  Biso 1.000000    Zn
   Zn   1.0     0.108703     0.952472     0.749034  Biso 1.000000    Zn
   Zn   1.0     0.097962     0.756327     0.051534  Biso 1.000000    Zn
   Zn   1.0     0.811648     0.547206     0.247420  Biso 1.000000    Zn
   Zn   1.0     0.905849     0.244517     0.949728  Biso 1.000000    Zn
   Zn   1.0     0.608138     0.450358     0.751276  Biso 1.000000    Zn
   Zn   1.0     0.105637     0.550357     0.742738  Biso 1.000000    Zn
   Zn   1.0     0.608716     0.749063     0.952427  Biso 1.000000    Zn
   Zn   1.0     0.401921     0.447955     0.254722  Biso 1.000000    Zn
   Zn   1.0     0.307122     0.252738     0.049266  Biso 1.000000    Zn
