#======================================================================

# CRYSTAL DATA

#----------------------------------------------------------------------

data_VESTA_phase_1


_pd_phase_name                         MOF
_cell_length_a                         14.90600
_cell_length_b                         14.91900
_cell_length_c                         20.01900
_cell_angle_alpha                      89.95700
_cell_angle_beta                       89.96700
_cell_angle_gamma                      90.01200
_symmetry_space_group_name_H-M         "P 1"
_symmetry_Int_Tables_number            1

loop_
_symmetry_equiv_pos_as_xyz
   "x, y, z"

loop_
   _atom_site_label
   _atom_site_occupancy
   _atom_site_fract_x
   _atom_site_fract_y
   _atom_site_fract_z
   _atom_site_adp_type
   _atom_site_B_iso_or_equiv
   _atom_site_type_symbol
    H   1.0     0.437311     0.805476     0.789495  Biso 1.000000     H
    H   1.0     0.557580     0.752999     0.867169  Biso 1.000000     H
    H   1.0     0.310471     0.428178     0.973017  Biso 1.000000     H
    H   1.0     0.185973     0.465627     0.894744  Biso 1.000000     H
    H   1.0     0.200677     0.597859     0.819021  Biso 1.000000     H
    H   1.0     0.062353     0.694535     0.789559  Biso 1.000000     H
    H   1.0     0.942154     0.747005     0.867388  Biso 1.000000     H
    H   1.0     0.189528     0.071623     0.972644  Biso 1.000000     H
    H   1.0     0.313995     0.034077     0.894267  Biso 1.000000     H
    H   1.0     0.299163     0.901885     0.818730  Biso 1.000000     H
    H   1.0     0.694736     0.437206     0.289224  Biso 1.000000     H
    H   1.0     0.746804     0.557239     0.367097  Biso 1.000000     H
    H   1.0     0.071636     0.310481     0.473192  Biso 1.000000     H
    H   1.0     0.034725     0.186297     0.394641  Biso 1.000000     H
    H   1.0     0.902687     0.200986     0.318709  Biso 1.000000     H
    H   1.0     0.805168     0.062828     0.289422  Biso 1.000000     H
    H   1.0     0.752690     0.942762     0.367368  Biso 1.000000     H
    H   1.0     0.427761     0.189626     0.472957  Biso 1.000000     H
    H   1.0     0.464995     0.313869     0.394276  Biso 1.000000     H
    H   1.0     0.597276     0.299238     0.318596  Biso 1.000000     H
    H   1.0     0.562477     0.305428     0.710650  Biso 1.000000     H
    H   1.0     0.442280     0.253190     0.632834  Biso 1.000000     H
    H   1.0     0.689414     0.928755     0.527018  Biso 1.000000     H
    H   1.0     0.813747     0.965843     0.605444  Biso 1.000000     H
    H   1.0     0.798991     0.097821     0.681270  Biso 1.000000     H
    H   1.0     0.937448     0.194814     0.710385  Biso 1.000000     H
    H   1.0     0.057620     0.247473     0.632477  Biso 1.000000     H
    H   1.0     0.810285     0.572328     0.527320  Biso 1.000000     H
    H   1.0     0.685919     0.534672     0.605812  Biso 1.000000     H
    H   1.0     0.700659     0.402303     0.681276  Biso 1.000000     H
    H   1.0     0.305390     0.937257     0.210563  Biso 1.000000     H
    H   1.0     0.253200     0.057312     0.132608  Biso 1.000000     H
    H   1.0     0.928206     0.810534     0.027030  Biso 1.000000     H
    H   1.0     0.965390     0.686208     0.105522  Biso 1.000000     H
    H   1.0     0.097556     0.700873     0.181273  Biso 1.000000     H
    H   1.0     0.194672     0.562963     0.210769  Biso 1.000000     H
    H   1.0     0.246768     0.442858     0.132930  Biso 1.000000     H
    H   1.0     0.571861     0.689457     0.026711  Biso 1.000000     H
    H   1.0     0.534830     0.813782     0.105105  Biso 1.000000     H
    H   1.0     0.402696     0.799212     0.181053  Biso 1.000000     H
    H   1.0     0.562722     0.194626     0.210536  Biso 1.000000     H
    H   1.0     0.442493     0.247020     0.132797  Biso 1.000000     H
    H   1.0     0.689538     0.571914     0.026966  Biso 1.000000     H
    H   1.0     0.814029     0.534504     0.105296  Biso 1.000000     H
    H   1.0     0.799335     0.402285     0.181011  Biso 1.000000     H
    H   1.0     0.937610     0.305439     0.210391  Biso 1.000000     H
    H   1.0     0.057812     0.252966     0.132556  Biso 1.000000     H
    H   1.0     0.810418     0.928430     0.027241  Biso 1.000000     H
    H   1.0     0.685966     0.965906     0.105641  Biso 1.000000     H
    H   1.0     0.700795     0.098069     0.181221  Biso 1.000000     H
    H   1.0     0.305202     0.562854     0.710770  Biso 1.000000     H
    H   1.0     0.253156     0.442800     0.632909  Biso 1.000000     H
    H   1.0     0.928302     0.689485     0.526763  Biso 1.000000     H
    H   1.0     0.965179     0.813694     0.605296  Biso 1.000000     H
    H   1.0     0.097209     0.799053     0.681242  Biso 1.000000     H
    H   1.0     0.194832     0.937152     0.710547  Biso 1.000000     H
    H   1.0     0.247301     0.057224     0.632604  Biso 1.000000     H
    H   1.0     0.572227     0.810378     0.526995  Biso 1.000000     H
    H   1.0     0.535007     0.686127     0.605670  Biso 1.000000     H
    H   1.0     0.402752     0.700761     0.681377  Biso 1.000000     H
    H   1.0     0.437540     0.694578     0.289297  Biso 1.000000     H
    H   1.0     0.557717     0.746782     0.367141  Biso 1.000000     H
    H   1.0     0.310593     0.071232     0.472948  Biso 1.000000     H
    H   1.0     0.186256     0.034136     0.394526  Biso 1.000000     H
    H   1.0     0.201011     0.902149     0.318707  Biso 1.000000     H
    H   1.0     0.062521     0.805192     0.289590  Biso 1.000000     H
    H   1.0     0.942336     0.752538     0.367487  Biso 1.000000     H
    H   1.0     0.189639     0.427670     0.472663  Biso 1.000000     H
    H   1.0     0.314023     0.465328     0.394190  Biso 1.000000     H
    H   1.0     0.299308     0.597715     0.318734  Biso 1.000000     H
    H   1.0     0.694530     0.062711     0.789445  Biso 1.000000     H
    H   1.0     0.746813     0.942623     0.867358  Biso 1.000000     H
    H   1.0     0.071744     0.189470     0.972931  Biso 1.000000     H
    H   1.0     0.034497     0.313827     0.894463  Biso 1.000000     H
    H   1.0     0.902309     0.299130     0.818721  Biso 1.000000     H
    H   1.0     0.805348     0.437034     0.789249  Biso 1.000000     H
    H   1.0     0.753213     0.557136     0.867072  Biso 1.000000     H
    H   1.0     0.428116     0.310503     0.973254  Biso 1.000000     H
    H   1.0     0.465162     0.186198     0.894826  Biso 1.000000     H
    H   1.0     0.597308     0.200793     0.818906  Biso 1.000000     H
    C   1.0     0.426637     0.745504     0.819595  Biso 1.000000     C
    C   1.0     0.494415     0.716196     0.864038  Biso 1.000000     C
    C   1.0     0.316957     0.484156     0.938316  Biso 1.000000     C
    C   1.0     0.246339     0.506625     0.894632  Biso 1.000000     C
    C   1.0     0.254967     0.579446     0.852722  Biso 1.000000     C
    C   1.0     0.335392     0.629421     0.853976  Biso 1.000000     C
    C   1.0     0.404671     0.602015     0.898442  Biso 1.000000     C
    C   1.0     0.073094     0.754448     0.819632  Biso 1.000000     C
    C   1.0     0.005365     0.783763     0.864143  Biso 1.000000     C
    C   1.0     0.182994     0.015657     0.938010  Biso 1.000000     C
    C   1.0     0.253593     0.993143     0.894287  Biso 1.000000     C
    C   1.0     0.244891     0.920347     0.852455  Biso 1.000000     C
    C   1.0     0.164437     0.870426     0.853850  Biso 1.000000     C
    C   1.0     0.095208     0.897845     0.898383  Biso 1.000000     C
    C   1.0     0.754594     0.426510     0.319434  Biso 1.000000     C
    C   1.0     0.783681     0.494166     0.363991  Biso 1.000000     C
    C   1.0     0.015804     0.316995     0.438369  Biso 1.000000     C
    C   1.0     0.993580     0.246537     0.394541  Biso 1.000000     C
    C   1.0     0.920863     0.255157     0.352536  Biso 1.000000     C
    C   1.0     0.870698     0.335402     0.353886  Biso 1.000000     C
    C   1.0     0.897860     0.404547     0.398495  Biso 1.000000     C
    C   1.0     0.745211     0.073548     0.319561  Biso 1.000000     C
    C   1.0     0.715917     0.005877     0.364136  Biso 1.000000     C
    C   1.0     0.483717     0.183144     0.438207  Biso 1.000000     C
    C   1.0     0.506103     0.253619     0.394340  Biso 1.000000     C
    C   1.0     0.578960     0.245025     0.352414  Biso 1.000000     C
    C   1.0     0.629081     0.164754     0.353843  Biso 1.000000     C
    C   1.0     0.601727     0.095605     0.398463  Biso 1.000000     C
    C   1.0     0.573172     0.245573     0.680502  Biso 1.000000     C
    C   1.0     0.505438     0.216406     0.635994  Biso 1.000000     C
    C   1.0     0.682877     0.984590     0.561757  Biso 1.000000     C
    C   1.0     0.753420     0.006862     0.605540  Biso 1.000000     C
    C   1.0     0.744770     0.079558     0.647475  Biso 1.000000     C
    C   1.0     0.664394     0.129576     0.646131  Biso 1.000000     C
    C   1.0     0.595157     0.102318     0.601590  Biso 1.000000     C
    C   1.0     0.926674     0.254765     0.680294  Biso 1.000000     C
    C   1.0     0.994390     0.284163     0.635752  Biso 1.000000     C
    C   1.0     0.816818     0.516232     0.561901  Biso 1.000000     C
    C   1.0     0.746280     0.493687     0.605704  Biso 1.000000     C
    C   1.0     0.754922     0.420765     0.647514  Biso 1.000000     C
    C   1.0     0.835315     0.370782     0.646083  Biso 1.000000     C
    C   1.0     0.904504     0.398263     0.601508  Biso 1.000000     C
    C   1.0     0.245479     0.926573     0.180416  Biso 1.000000     C
    C   1.0     0.216326     0.994238     0.135826  Biso 1.000000     C
    C   1.0     0.984133     0.817019     0.061747  Biso 1.000000     C
    C   1.0     0.006508     0.746479     0.105533  Biso 1.000000     C
    C   1.0     0.079268     0.755098     0.147479  Biso 1.000000     C
    C   1.0     0.129368     0.835405     0.146099  Biso 1.000000     C
    C   1.0     0.102099     0.904590     0.101503  Biso 1.000000     C
    C   1.0     0.254580     0.573611     0.180549  Biso 1.000000     C
    C   1.0     0.283698     0.505911     0.136033  Biso 1.000000     C
    C   1.0     0.515942     0.683011     0.061506  Biso 1.000000     C
    C   1.0     0.493673     0.753552     0.105253  Biso 1.000000     C
    C   1.0     0.420916     0.744982     0.147286  Biso 1.000000     C
    C   1.0     0.370749     0.664711     0.146032  Biso 1.000000     C
    C   1.0     0.397954     0.595507     0.101481  Biso 1.000000     C
    C   1.0     0.573407     0.254570     0.180407  Biso 1.000000     C
    C   1.0     0.505643     0.283846     0.135942  Biso 1.000000     C
    C   1.0     0.683073     0.515928     0.061672  Biso 1.000000     C
    C   1.0     0.753674     0.493485     0.105377  Biso 1.000000     C
    C   1.0     0.745050     0.420670     0.147297  Biso 1.000000     C
    C   1.0     0.664649     0.370656     0.146019  Biso 1.000000     C
    C   1.0     0.595391     0.398022     0.101522  Biso 1.000000     C
    C   1.0     0.926870     0.245525     0.180320  Biso 1.000000     C
    C   1.0     0.994602     0.216208     0.135813  Biso 1.000000     C
    C   1.0     0.816958     0.984354     0.061910  Biso 1.000000     C
    C   1.0     0.746365     0.006843     0.105645  Biso 1.000000     C
    C   1.0     0.755070     0.079621     0.147495  Biso 1.000000     C
    C   1.0     0.835524     0.129544     0.146105  Biso 1.000000     C
    C   1.0     0.904757     0.102129     0.101573  Biso 1.000000     C
    C   1.0     0.245351     0.573539     0.680549  Biso 1.000000     C
    C   1.0     0.216274     0.505872     0.635999  Biso 1.000000     C
    C   1.0     0.984141     0.682998     0.561583  Biso 1.000000     C
    C   1.0     0.006336     0.753462     0.605413  Biso 1.000000     C
    C   1.0     0.079063     0.744874     0.647413  Biso 1.000000     C
    C   1.0     0.129242     0.664635     0.646080  Biso 1.000000     C
    C   1.0     0.102087     0.595471     0.601482  Biso 1.000000     C
    C   1.0     0.254788     0.926437     0.680405  Biso 1.000000     C
    C   1.0     0.284078     0.994111     0.635832  Biso 1.000000     C
    C   1.0     0.516271     0.816852     0.561744  Biso 1.000000     C
    C   1.0     0.493905     0.746381     0.605619  Biso 1.000000     C
    C   1.0     0.421048     0.754968     0.647547  Biso 1.000000     C
    C   1.0     0.370925     0.835239     0.646125  Biso 1.000000     C
    C   1.0     0.398275     0.904391     0.601505  Biso 1.000000     C
    C   1.0     0.426840     0.754423     0.319453  Biso 1.000000     C
    C   1.0     0.494566     0.783577     0.363973  Biso 1.000000     C
    C   1.0     0.317137     0.015406     0.438201  Biso 1.000000     C
    C   1.0     0.246582     0.993115     0.394434  Biso 1.000000     C
    C   1.0     0.255239     0.920426     0.352492  Biso 1.000000     C
    C   1.0     0.335615     0.870410     0.353836  Biso 1.000000     C
    C   1.0     0.404849     0.897664     0.398380  Biso 1.000000     C
    C   1.0     0.073289     0.745240     0.319680  Biso 1.000000     C
    C   1.0     0.005564     0.715844     0.364216  Biso 1.000000     C
    C   1.0     0.183112     0.483760     0.438076  Biso 1.000000     C
    C   1.0     0.253666     0.506318     0.394292  Biso 1.000000     C
    C   1.0     0.245032     0.579240     0.352480  Biso 1.000000     C
    C   1.0     0.164640     0.629225     0.353905  Biso 1.000000     C
    C   1.0     0.095440     0.601744     0.398471  Biso 1.000000     C
    C   1.0     0.754460     0.073393     0.819571  Biso 1.000000     C
    C   1.0     0.783657     0.005714     0.864136  Biso 1.000000     C
    C   1.0     0.015818     0.182992     0.938204  Biso 1.000000     C
    C   1.0     0.993408     0.253535     0.894432  Biso 1.000000     C
    C   1.0     0.920632     0.244904     0.852502  Biso 1.000000     C
    C   1.0     0.870567     0.164576     0.853872  Biso 1.000000     C
    C   1.0     0.897875     0.095382     0.898445  Biso 1.000000     C
    C   1.0     0.745427     0.426382     0.819455  Biso 1.000000     C
    C   1.0     0.716297     0.494074     0.863974  Biso 1.000000     C
    C   1.0     0.484047     0.316956     0.938468  Biso 1.000000     C
    C   1.0     0.506315     0.246432     0.894705  Biso 1.000000     C
    C   1.0     0.579089     0.255005     0.852688  Biso 1.000000     C
    C   1.0     0.629252     0.335278     0.853953  Biso 1.000000     C
    C   1.0     0.602035     0.404473     0.898506  Biso 1.000000     C
    N   1.0     0.347957     0.703515     0.813849  Biso 1.000000     N
    N   1.0     0.484096     0.645547     0.903450  Biso 1.000000     N
    N   1.0     0.393467     0.530186     0.940026  Biso 1.000000     N
    N   1.0     0.151811     0.796371     0.813792  Biso 1.000000     N
    N   1.0     0.015784     0.854325     0.903538  Biso 1.000000     N
    N   1.0     0.106472     0.969661     0.939882  Biso 1.000000     N
    N   1.0     0.796666     0.347943     0.313698  Biso 1.000000     N
    N   1.0     0.854164     0.483822     0.403549  Biso 1.000000     N
    N   1.0     0.969615     0.393371     0.440142  Biso 1.000000     N
    N   1.0     0.703235     0.152168     0.313736  Biso 1.000000     N
    N   1.0     0.645304     0.016284     0.403602  Biso 1.000000     N
    N   1.0     0.529893     0.106789     0.440077  Biso 1.000000     N
    N   1.0     0.651831     0.203576     0.686259  Biso 1.000000     N
    N   1.0     0.515788     0.145898     0.596532  Biso 1.000000     N
    N   1.0     0.606376     0.030587     0.559998  Biso 1.000000     N
    N   1.0     0.847962     0.296653     0.686155  Biso 1.000000     N
    N   1.0     0.983937     0.354796     0.596356  Biso 1.000000     N
    N   1.0     0.893262     0.470130     0.559977  Biso 1.000000     N
    N   1.0     0.203442     0.847963     0.186224  Biso 1.000000     N
    N   1.0     0.145762     0.983888     0.096357  Biso 1.000000     N
    N   1.0     0.030296     0.893418     0.059913  Biso 1.000000     N
    N   1.0     0.296673     0.652188     0.186243  Biso 1.000000     N
    N   1.0     0.354253     0.516222     0.096475  Biso 1.000000     N
    N   1.0     0.469763     0.606631     0.059815  Biso 1.000000     N
    N   1.0     0.652078     0.296572     0.186156  Biso 1.000000     N
    N   1.0     0.515985     0.354456     0.096493  Biso 1.000000     N
    N   1.0     0.606586     0.469853     0.059937  Biso 1.000000     N
    N   1.0     0.848155     0.203598     0.186165  Biso 1.000000     N
    N   1.0     0.984183     0.145645     0.096420  Biso 1.000000     N
    N   1.0     0.893496     0.030323     0.060066  Biso 1.000000     N
    N   1.0     0.203271     0.652103     0.686275  Biso 1.000000     N
    N   1.0     0.145786     0.516197     0.596444  Biso 1.000000     N
    N   1.0     0.030325     0.606618     0.559837  Biso 1.000000     N
    N   1.0     0.296777     0.847826     0.686237  Biso 1.000000     N
    N   1.0     0.354698     0.983712     0.596373  Biso 1.000000     N
    N   1.0     0.470112     0.893218     0.559893  Biso 1.000000     N
    N   1.0     0.348176     0.796414     0.313704  Biso 1.000000     N
    N   1.0     0.484212     0.854072     0.403446  Biso 1.000000     N
    N   1.0     0.393627     0.969391     0.439975  Biso 1.000000     N
    N   1.0     0.152003     0.703353     0.313830  Biso 1.000000     N
    N   1.0     0.016011     0.645217     0.403619  Biso 1.000000     N
    N   1.0     0.106679     0.529879     0.440006  Biso 1.000000     N
    N   1.0     0.796484     0.152009     0.813759  Biso 1.000000     N
    N   1.0     0.854247     0.016064     0.903580  Biso 1.000000     N
    N   1.0     0.969688     0.106572     0.940022  Biso 1.000000     N
    N   1.0     0.703334     0.347807     0.813750  Biso 1.000000     N
    N   1.0     0.645721     0.483766     0.903512  Biso 1.000000     N
    N   1.0     0.530223     0.393338     0.940167  Biso 1.000000     N
    O   1.0     0.807472     0.694580     0.041915  Biso 1.000000     O
    O   1.0     0.691955     0.808237     0.041007  Biso 1.000000     O
    O   1.0     0.807184     0.808301     0.956379  Biso 1.000000     O
    O   1.0     0.692920     0.692598     0.956930  Biso 1.000000     O
    O   1.0     0.808517     0.811499     0.538966  Biso 1.000000     O
    O   1.0     0.695464     0.695323     0.541735  Biso 1.000000     O
    O   1.0     0.691832     0.808350     0.455706  Biso 1.000000     O
    O   1.0     0.808480     0.695077     0.455561  Biso 1.000000     O
    O   1.0     0.191456     0.188528     0.460994  Biso 1.000000     O
    O   1.0     0.304523     0.304688     0.458234  Biso 1.000000     O
    O   1.0     0.191505     0.304934     0.544409  Biso 1.000000     O
    O   1.0     0.308143     0.191651     0.544255  Biso 1.000000     O
    O   1.0     0.192361     0.307317     0.958627  Biso 1.000000     O
    O   1.0     0.306930     0.192599     0.958447  Biso 1.000000     O
    O   1.0     0.307220     0.307136     0.043360  Biso 1.000000     O
    O   1.0     0.192081     0.192266     0.043274  Biso 1.000000     O
    O   1.0     0.460394     0.574611     0.728001  Biso 1.000000     O
    O   1.0     0.574676     0.460440     0.727990  Biso 1.000000     O
    O   1.0     0.445494     0.445506     0.799611  Biso 1.000000     O
    O   1.0     0.429373     0.429430     0.680258  Biso 1.000000     O
    O   1.0     0.039602     0.925408     0.727994  Biso 1.000000     O
    O   1.0     0.925297     0.039594     0.727983  Biso 1.000000     O
    O   1.0     0.054475     0.054443     0.799517  Biso 1.000000     O
    O   1.0     0.070657     0.070624     0.680149  Biso 1.000000     O
    O   1.0     0.925298     0.460409     0.228002  Biso 1.000000     O
    O   1.0     0.039610     0.574616     0.227968  Biso 1.000000     O
    O   1.0     0.054473     0.445513     0.299553  Biso 1.000000     O
    O   1.0     0.070645     0.429437     0.180197  Biso 1.000000     O
    O   1.0     0.574690     0.039607     0.227954  Biso 1.000000     O
    O   1.0     0.460394     0.925415     0.228000  Biso 1.000000     O
    O   1.0     0.445491     0.054448     0.299536  Biso 1.000000     O
    O   1.0     0.429389     0.070620     0.180178  Biso 1.000000     O
    O   1.0     0.539591     0.074591     0.771973  Biso 1.000000     O
    O   1.0     0.425295     0.960400     0.772020  Biso 1.000000     O
    O   1.0     0.554492     0.945557     0.700437  Biso 1.000000     O
    O   1.0     0.570597     0.929385     0.819793  Biso 1.000000     O
    O   1.0     0.960375     0.425383     0.772010  Biso 1.000000     O
    O   1.0     0.074688     0.539590     0.771977  Biso 1.000000     O
    O   1.0     0.945513     0.554488     0.700427  Biso 1.000000     O
    O   1.0     0.929340     0.570562     0.819782  Biso 1.000000     O
    O   1.0     0.074690     0.960411     0.271995  Biso 1.000000     O
    O   1.0     0.960384     0.074596     0.271982  Biso 1.000000     O
    O   1.0     0.945515     0.945561     0.200457  Biso 1.000000     O
    O   1.0     0.929329     0.929379     0.319825  Biso 1.000000     O
    O   1.0     0.425309     0.539561     0.271989  Biso 1.000000     O
    O   1.0     0.539589     0.425390     0.271979  Biso 1.000000     O
    O   1.0     0.554491     0.554493     0.200368  Biso 1.000000     O
    O   1.0     0.570613     0.570571     0.319721  Biso 1.000000     O
   Cl   1.0     0.749872     0.750924     0.999008  Biso 1.000000    Cl
   Cl   1.0     0.751093     0.752539     0.497941  Biso 1.000000    Cl
   Cl   1.0     0.248887     0.247474     0.502023  Biso 1.000000    Cl
   Cl   1.0     0.249647     0.249841     0.000970  Biso 1.000000    Cl
   Cl   1.0     0.477086     0.477105     0.733970  Biso 1.000000    Cl
   Cl   1.0     0.022906     0.022908     0.733909  Biso 1.000000    Cl
   Cl   1.0     0.022906     0.477105     0.233931  Biso 1.000000    Cl
   Cl   1.0     0.477096     0.022908     0.233919  Biso 1.000000    Cl
   Cl   1.0     0.522889     0.977097     0.766053  Biso 1.000000    Cl
   Cl   1.0     0.977082     0.522893     0.766048  Biso 1.000000    Cl
   Cl   1.0     0.977082     0.977097     0.266067  Biso 1.000000    Cl
   Cl   1.0     0.522897     0.522896     0.266010  Biso 1.000000    Cl
   Cu   1.0     0.500004     0.500003    -0.000002  Biso 1.000000    Cu
   Cu   1.0    -0.000006    -0.000001    -0.000016  Biso 1.000000    Cu
   Cu   1.0    -0.000012     0.499996     0.499990  Biso 1.000000    Cu
   Cu   1.0     0.500000    -0.000005     0.499982  Biso 1.000000    Cu
   Cu   1.0     0.249941     0.749962     0.750021  Biso 1.000000    Cu
   Cu   1.0     0.750055     0.250047     0.249955  Biso 1.000000    Cu
   Cu   1.0     0.749942     0.249968     0.749972  Biso 1.000000    Cu
   Cu   1.0     0.250036     0.750025     0.250006  Biso 1.000000    Cu
