#======================================================================

# CRYSTAL DATA

#----------------------------------------------------------------------

data_VESTA_phase_1


_pd_phase_name                         MOF
_cell_length_a                         13.21900
_cell_length_b                         14.33000
_cell_length_c                         14.33700
_cell_angle_alpha                      77.76700
_cell_angle_beta                       62.58900
_cell_angle_gamma                      62.64700
_symmetry_space_group_name_H-M         "P 1"
_symmetry_Int_Tables_number            1

loop_
_symmetry_equiv_pos_as_xyz
   "x, y, z"

loop_
   _atom_site_label
   _atom_site_occupancy
   _atom_site_fract_x
   _atom_site_fract_y
   _atom_site_fract_z
   _atom_site_adp_type
   _atom_site_B_iso_or_equiv
   _atom_site_type_symbol
    H   1.0     0.363021     0.334388     0.487998  Biso 1.000000     H
    H   1.0     0.254924     0.376714     0.617858  Biso 1.000000     H
    H   1.0     0.685938     0.165383     0.012236  Biso 1.000000     H
    H   1.0     0.749559     0.123054     0.882392  Biso 1.000000     H
    H   1.0     0.351365     0.511928     0.834348  Biso 1.000000     H
    H   1.0     0.372736     0.382050     0.876754  Biso 1.000000     H
    H   1.0     0.197926     0.987669     0.665312  Biso 1.000000     H
    H   1.0     0.132172     0.117502     0.622874  Biso 1.000000     H
    H   1.0     0.314054     0.988004     0.834417  Biso 1.000000     H
    H   1.0     0.250490     0.117838     0.876740  Biso 1.000000     H
    H   1.0     0.636955     0.512166     0.665400  Biso 1.000000     H
    H   1.0     0.745024     0.382332     0.623019  Biso 1.000000     H
    H   1.0     0.801789     0.334763     0.012366  Biso 1.000000     H
    H   1.0     0.867783     0.377146     0.882494  Biso 1.000000     H
    H   1.0     0.648788     0.165657     0.488105  Biso 1.000000     H
    H   1.0     0.627235     0.123252     0.617983  Biso 1.000000     H
    H   1.0     0.636973     0.665579     0.512018  Biso 1.000000     H
    H   1.0     0.745084     0.623269     0.382156  Biso 1.000000     H
    H   1.0     0.314025     0.834620     0.987747  Biso 1.000000     H
    H   1.0     0.250433     0.876918     0.117603  Biso 1.000000     H
    H   1.0     0.648607     0.488103     0.165654  Biso 1.000000     H
    H   1.0     0.627248     0.617978     0.123240  Biso 1.000000     H
    H   1.0     0.801998     0.012348     0.334756  Biso 1.000000     H
    H   1.0     0.867794     0.882502     0.377157  Biso 1.000000     H
    H   1.0     0.685899     0.012017     0.165601  Biso 1.000000     H
    H   1.0     0.749462     0.882177     0.123295  Biso 1.000000     H
    H   1.0     0.363052     0.487802     0.334603  Biso 1.000000     H
    H   1.0     0.254995     0.617639     0.376983  Biso 1.000000     H
    H   1.0     0.198171     0.665260     0.987650  Biso 1.000000     H
    H   1.0     0.132205     0.622860     0.117517  Biso 1.000000     H
    H   1.0     0.351167     0.834323     0.511981  Biso 1.000000     H
    H   1.0     0.372730     0.876706     0.382099  Biso 1.000000     H
    H   1.0     0.170999     0.483350     0.483698  Biso 1.000000     H
    H   1.0     0.174279     0.561039     0.561327  Biso 1.000000     H
    H   1.0     0.638108     0.016318     0.016658  Biso 1.000000     H
    H   1.0     0.796293     0.938711     0.938950  Biso 1.000000     H
    H   1.0     0.154904     0.516098     0.983274  Biso 1.000000     H
    H   1.0     0.235492     0.438499     0.061042  Biso 1.000000     H
    H   1.0     0.154857     0.983203     0.516174  Biso 1.000000     H
    H   1.0     0.235582     0.060971     0.438535  Biso 1.000000     H
    H   1.0     0.361857     0.983681     0.983359  Biso 1.000000     H
    H   1.0     0.203675     0.061278     0.061078  Biso 1.000000     H
    H   1.0     0.829010     0.516627     0.516311  Biso 1.000000     H
    H   1.0     0.825746     0.438935     0.438673  Biso 1.000000     H
    H   1.0     0.845080     0.483917     0.016731  Biso 1.000000     H
    H   1.0     0.764502     0.561514     0.938954  Biso 1.000000     H
    H   1.0     0.845105     0.016770     0.483891  Biso 1.000000     H
    H   1.0     0.764390     0.938993     0.561515  Biso 1.000000     H
    C   1.0     0.410722     0.417200     0.556244  Biso 1.000000     C
    C   1.0     0.314270     0.400843     0.542574  Biso 1.000000     C
    C   1.0     0.884249     0.082693     0.943862  Biso 1.000000     C
    C   1.0     0.757855     0.098946     0.957643  Biso 1.000000     C
    C   1.0     0.466968     0.443729     0.917238  Biso 1.000000     C
    C   1.0     0.356949     0.457340     0.900843  Biso 1.000000     C
    C   1.0     0.328167     0.056061     0.582653  Biso 1.000000     C
    C   1.0     0.215529     0.042263     0.598837  Biso 1.000000     C
    C   1.0     0.115715     0.056271     0.917248  Biso 1.000000     C
    C   1.0     0.242127     0.042571     0.900878  Biso 1.000000     C
    C   1.0     0.589246     0.443850     0.582692  Biso 1.000000     C
    C   1.0     0.685713     0.457598     0.598940  Biso 1.000000     C
    C   1.0     0.671757     0.417398     0.943925  Biso 1.000000     C
    C   1.0     0.784353     0.401216     0.957725  Biso 1.000000     C
    C   1.0     0.533038     0.082739     0.556311  Biso 1.000000     C
    C   1.0     0.643085     0.099156     0.542693  Biso 1.000000     C
    C   1.0     0.589307     0.582758     0.443752  Biso 1.000000     C
    C   1.0     0.685743     0.599127     0.457434  Biso 1.000000     C
    C   1.0     0.115716     0.917313     0.056151  Biso 1.000000     C
    C   1.0     0.242119     0.901045     0.042360  Biso 1.000000     C
    C   1.0     0.533022     0.556294     0.082752  Biso 1.000000     C
    C   1.0     0.643037     0.542686     0.099153  Biso 1.000000     C
    C   1.0     0.671790     0.943930     0.417410  Biso 1.000000     C
    C   1.0     0.784428     0.957733     0.401217  Biso 1.000000     C
    C   1.0     0.884246     0.943736     0.082777  Biso 1.000000     C
    C   1.0     0.757832     0.957440     0.099149  Biso 1.000000     C
    C   1.0     0.410780     0.556116     0.417300  Biso 1.000000     C
    C   1.0     0.314305     0.542372     0.401060  Biso 1.000000     C
    C   1.0     0.328224     0.582634     0.056075  Biso 1.000000     C
    C   1.0     0.215629     0.598802     0.042281  Biso 1.000000     C
    C   1.0     0.466927     0.917235     0.443751  Biso 1.000000     C
    C   1.0     0.356875     0.900817     0.457383  Biso 1.000000     C
    C   1.0     0.454200     0.493384     0.493447  Biso 1.000000     C
    C   1.0     0.234441     0.499893     0.500158  Biso 1.000000     C
    C   1.0     0.941062     0.006518     0.006581  Biso 1.000000     C
    C   1.0     0.734471    -0.000152     0.000106  Biso 1.000000     C
    C   1.0     0.447659     0.506533     0.993407  Biso 1.000000     C
    C   1.0     0.234702     0.499688     0.999857  Biso 1.000000     C
    C   1.0     0.447644     0.993393     0.506560  Biso 1.000000     C
    C   1.0     0.234683     0.999817     0.499736  Biso 1.000000     C
    C   1.0     0.058887     0.993501     0.993451  Biso 1.000000     C
    C   1.0     0.265493     0.000000     0.999915  Biso 1.000000     C
    C   1.0     0.545848     0.506556     0.506526  Biso 1.000000     C
    C   1.0     0.765577     0.500078     0.499845  Biso 1.000000     C
    C   1.0     0.552320     0.493512     0.006572  Biso 1.000000     C
    C   1.0     0.765284     0.500330     0.000144  Biso 1.000000     C
    C   1.0     0.552315     0.006569     0.493523  Biso 1.000000     C
    C   1.0     0.765276     0.000161     0.500327  Biso 1.000000     C
    N   1.0     0.454735     0.359606     0.627078  Biso 1.000000     N
    N   1.0     0.941441     0.140407     0.873014  Biso 1.000000     N
    N   1.0     0.581700     0.372928     0.859718  Biso 1.000000     N
    N   1.0     0.314582     0.126886     0.640379  Biso 1.000000     N
    N   1.0     0.058576     0.127035     0.859561  Biso 1.000000     N
    N   1.0     0.545136     0.373015     0.640390  Biso 1.000000     N
    N   1.0     0.685351     0.359596     0.873171  Biso 1.000000     N
    N   1.0     0.418284     0.140276     0.627096  Biso 1.000000     N
    N   1.0     0.545221     0.640410     0.372977  Biso 1.000000     N
    N   1.0     0.058533     0.859589     0.126989  Biso 1.000000     N
    N   1.0     0.418282     0.627057     0.140312  Biso 1.000000     N
    N   1.0     0.685371     0.873141     0.359645  Biso 1.000000     N
    N   1.0     0.941403     0.872947     0.140441  Biso 1.000000     N
    N   1.0     0.454845     0.626988     0.359636  Biso 1.000000     N
    N   1.0     0.314623     0.640391     0.126872  Biso 1.000000     N
    N   1.0     0.581679     0.859722     0.372947  Biso 1.000000     N
   Cu   1.0     0.392934     0.249777     0.714643  Biso 1.000000    Cu
   Cu   1.0     0.857015     0.250011     0.785558  Biso 1.000000    Cu
   Cu   1.0     0.606972     0.285509     0.750100  Biso 1.000000    Cu
   Cu   1.0     0.142973     0.214607     0.749965  Biso 1.000000    Cu
   Cu   1.0     0.607076     0.750186     0.285390  Biso 1.000000    Cu
   Cu   1.0     0.142953     0.750034     0.214451  Biso 1.000000    Cu
   Cu   1.0     0.393056     0.714490     0.249876  Biso 1.000000    Cu
   Cu   1.0     0.856971     0.785406     0.250103  Biso 1.000000    Cu
    I   1.0     0.499861     0.151969     0.848079  Biso 1.000000     I
    I   1.0     0.000074     0.347614     0.652431  Biso 1.000000     I
    I   1.0     0.847245     0.152316     0.652347  Biso 1.000000     I
    I   1.0     0.152574     0.347786     0.847836  Biso 1.000000     I
    I   1.0     0.500101     0.848029     0.151966  Biso 1.000000     I
    I   1.0    -0.000089     0.652399     0.347604  Biso 1.000000     I
    I   1.0     0.152723     0.847689     0.347663  Biso 1.000000     I
    I   1.0     0.847383     0.652222     0.152192  Biso 1.000000     I
