#======================================================================

# CRYSTAL DATA

#----------------------------------------------------------------------

data_VESTA_phase_1


_pd_phase_name                         MOF
_cell_length_a                         13.69400
_cell_length_b                         14.21500
_cell_length_c                         15.96900
_cell_angle_alpha                      90.00200
_cell_angle_beta                       89.98500
_cell_angle_gamma                      89.95300
_symmetry_space_group_name_H-M         "P 1"
_symmetry_Int_Tables_number            1

loop_
_symmetry_equiv_pos_as_xyz
   "x, y, z"

loop_
   _atom_site_label
   _atom_site_occupancy
   _atom_site_fract_x
   _atom_site_fract_y
   _atom_site_fract_z
   _atom_site_adp_type
   _atom_site_B_iso_or_equiv
   _atom_site_type_symbol
    H   1.0     0.475571     0.927232     0.189844  Biso 1.000000     H
    H   1.0     0.975567     0.927292     0.189804  Biso 1.000000     H
    H   1.0     0.286031     0.969491     0.180646  Biso 1.000000     H
    H   1.0     0.786011     0.969583     0.180568  Biso 1.000000     H
    H   1.0     0.463222     0.043142     0.308116  Biso 1.000000     H
    H   1.0     0.963220     0.043205     0.308074  Biso 1.000000     H
    H   1.0     0.273691     0.085391     0.298932  Biso 1.000000     H
    H   1.0     0.773670     0.085482     0.298855  Biso 1.000000     H
    H   1.0     0.273923     0.072372     0.691363  Biso 1.000000     H
    H   1.0     0.773950     0.072305     0.691297  Biso 1.000000     H
    H   1.0     0.463766     0.028583     0.680768  Biso 1.000000     H
    H   1.0     0.963769     0.028514     0.680718  Biso 1.000000     H
    H   1.0     0.286472     0.954841     0.808336  Biso 1.000000     H
    H   1.0     0.786502     0.954775     0.808270  Biso 1.000000     H
    H   1.0     0.476307     0.911066     0.797767  Biso 1.000000     H
    H   1.0     0.976307     0.910996     0.797718  Biso 1.000000     H
    H   1.0     0.023975     0.426457     0.310178  Biso 1.000000     H
    H   1.0     0.523964     0.426374     0.310104  Biso 1.000000     H
    H   1.0     0.213405     0.468646     0.318755  Biso 1.000000     H
    H   1.0     0.713426     0.468762     0.318867  Biso 1.000000     H
    H   1.0     0.036726     0.543855     0.193136  Biso 1.000000     H
    H   1.0     0.536725     0.543777     0.193067  Biso 1.000000     H
    H   1.0     0.226172     0.586053     0.201716  Biso 1.000000     H
    H   1.0     0.726185     0.586166     0.201825  Biso 1.000000     H
    H   1.0     0.225881     0.571995     0.810065  Biso 1.000000     H
    H   1.0     0.725870     0.571897     0.810152  Biso 1.000000     H
    H   1.0     0.036101     0.527699     0.819805  Biso 1.000000     H
    H   1.0     0.536112     0.527778     0.819743  Biso 1.000000     H
    H   1.0     0.213193     0.456074     0.691836  Biso 1.000000     H
    H   1.0     0.713177     0.455976     0.691922  Biso 1.000000     H
    H   1.0     0.023404     0.411758     0.701592  Biso 1.000000     H
    H   1.0     0.523420     0.411837     0.701528  Biso 1.000000     H
    C   1.0     0.138757     0.871021     0.110106  Biso 1.000000     C
    C   1.0     0.638755     0.871024     0.110098  Biso 1.000000     C
    C   1.0     0.131513     0.941504     0.178744  Biso 1.000000     C
    C   1.0     0.631507     0.941518     0.178727  Biso 1.000000     C
    C   1.0     0.040160     0.962542     0.214131  Biso 1.000000     C
    C   1.0     0.540161     0.962514     0.214146  Biso 1.000000     C
    C   1.0     0.215836     0.986148     0.209066  Biso 1.000000     C
    C   1.0     0.715822     0.986205     0.209015  Biso 1.000000     C
    C   1.0     0.110799     0.138266     0.381305  Biso 1.000000     C
    C   1.0     0.610797     0.138269     0.381296  Biso 1.000000     C
    C   1.0     0.117785     0.070826     0.310275  Biso 1.000000     C
    C   1.0     0.617779     0.070838     0.310260  Biso 1.000000     C
    C   1.0     0.033370     0.026744     0.279497  Biso 1.000000     C
    C   1.0     0.533370     0.026715     0.279513  Biso 1.000000     C
    C   1.0     0.209046     0.050356     0.274448  Biso 1.000000     C
    C   1.0     0.709031     0.050411     0.274398  Biso 1.000000     C
    C   1.0     0.110963     0.128440     0.611490  Biso 1.000000     C
    C   1.0     0.610971     0.128439     0.611483  Biso 1.000000     C
    C   1.0     0.118120     0.057419     0.679664  Biso 1.000000     C
    C   1.0     0.618133     0.057419     0.679658  Biso 1.000000     C
    C   1.0     0.209440     0.036409     0.715100  Biso 1.000000     C
    C   1.0     0.709461     0.036374     0.715061  Biso 1.000000     C
    C   1.0     0.033924     0.011879     0.709183  Biso 1.000000     C
    C   1.0     0.533931     0.011919     0.709209  Biso 1.000000     C
    C   1.0     0.138937     0.858067     0.880099  Biso 1.000000     C
    C   1.0     0.638954     0.858070     0.880094  Biso 1.000000     C
    C   1.0     0.132062     0.926238     0.809648  Biso 1.000000     C
    C   1.0     0.632080     0.926238     0.809640  Biso 1.000000     C
    C   1.0     0.216351     0.971279     0.779714  Biso 1.000000     C
    C   1.0     0.716375     0.971242     0.779673  Biso 1.000000     C
    C   1.0     0.040832     0.946746     0.773814  Biso 1.000000     C
    C   1.0     0.540842     0.946784     0.773839  Biso 1.000000     C
    C   1.0     0.360677     0.369549     0.389080  Biso 1.000000     C
    C   1.0     0.860684     0.369595     0.389127  Biso 1.000000     C
    C   1.0     0.367960     0.440527     0.320852  Biso 1.000000     C
    C   1.0     0.867974     0.440608     0.320929  Biso 1.000000     C
    C   1.0     0.459431     0.461958     0.285922  Biso 1.000000     C
    C   1.0     0.959444     0.462043     0.286001  Biso 1.000000     C
    C   1.0     0.283712     0.485600     0.290735  Biso 1.000000     C
    C   1.0     0.783729     0.485705     0.290834  Biso 1.000000     C
    C   1.0     0.389064     0.639791     0.120292  Biso 1.000000     C
    C   1.0     0.889067     0.639829     0.120334  Biso 1.000000     C
    C   1.0     0.382127     0.571618     0.190755  Biso 1.000000     C
    C   1.0     0.882135     0.571695     0.190828  Biso 1.000000     C
    C   1.0     0.466460     0.527033     0.221268  Biso 1.000000     C
    C   1.0     0.966470     0.527115     0.221345  Biso 1.000000     C
    C   1.0     0.290741     0.550682     0.226077  Biso 1.000000     C
    C   1.0     0.790755     0.550785     0.226174  Biso 1.000000     C
    C   1.0     0.388954     0.627041     0.890121  Biso 1.000000     C
    C   1.0     0.888953     0.627004     0.890155  Biso 1.000000     C
    C   1.0     0.381695     0.556706     0.821400  Biso 1.000000     C
    C   1.0     0.881687     0.556630     0.821467  Biso 1.000000     C
    C   1.0     0.290335     0.536277     0.785852  Biso 1.000000     C
    C   1.0     0.790324     0.536185     0.785932  Biso 1.000000     C
    C   1.0     0.465899     0.511564     0.791235  Biso 1.000000     C
    C   1.0     0.965890     0.511484     0.791302  Biso 1.000000     C
    C   1.0     0.360666     0.359769     0.619138  Biso 1.000000     C
    C   1.0     0.860661     0.359729     0.619176  Biso 1.000000     C
    C   1.0     0.367641     0.427386     0.689990  Biso 1.000000     C
    C   1.0     0.867629     0.427314     0.690053  Biso 1.000000     C
    C   1.0     0.283359     0.472073     0.720523  Biso 1.000000     C
    C   1.0     0.783345     0.471982     0.720602  Biso 1.000000     C
    C   1.0     0.458921     0.447342     0.725905  Biso 1.000000     C
    C   1.0     0.958909     0.447262     0.725972  Biso 1.000000     C
    O   1.0     0.354604     0.193325     0.498212  Biso 1.000000     O
    O   1.0     0.854608     0.193313     0.498201  Biso 1.000000     O
    O   1.0     0.223963     0.850811     0.082900  Biso 1.000000     O
    O   1.0     0.723961     0.850820     0.082890  Biso 1.000000     O
    O   1.0     0.025712     0.156746     0.409699  Biso 1.000000     O
    O   1.0     0.525712     0.156735     0.409702  Biso 1.000000     O
    O   1.0     0.058741     0.835193     0.083816  Biso 1.000000     O
    O   1.0     0.558740     0.835188     0.083813  Biso 1.000000     O
    O   1.0     0.190885     0.172704     0.408917  Biso 1.000000     O
    O   1.0     0.690882     0.172716     0.408899  Biso 1.000000     O
    O   1.0     0.395047     0.804606     0.997130  Biso 1.000000     O
    O   1.0     0.895052     0.804591     0.997133  Biso 1.000000     O
    O   1.0     0.025944     0.148346     0.583730  Biso 1.000000     O
    O   1.0     0.525950     0.148353     0.583733  Biso 1.000000     O
    O   1.0     0.223818     0.839661     0.908908  Biso 1.000000     O
    O   1.0     0.723834     0.839657     0.908902  Biso 1.000000     O
    O   1.0     0.191071     0.164859     0.586013  Biso 1.000000     O
    O   1.0     0.691079     0.164851     0.586000  Biso 1.000000     O
    O   1.0     0.058753     0.823061     0.906960  Biso 1.000000     O
    O   1.0     0.558768     0.823069     0.906958  Biso 1.000000     O
    O   1.0     0.145106     0.693232     0.003190  Biso 1.000000     O
    O   1.0     0.645112     0.693243     0.003186  Biso 1.000000     O
    O   1.0     0.275580     0.349440     0.416501  Biso 1.000000     O
    O   1.0     0.775580     0.349450     0.416514  Biso 1.000000     O
    O   1.0     0.473959     0.658274     0.091585  Biso 1.000000     O
    O   1.0     0.973962     0.658294     0.091618  Biso 1.000000     O
    O   1.0     0.440764     0.333347     0.414986  Biso 1.000000     O
    O   1.0     0.940767     0.333387     0.415032  Biso 1.000000     O
    O   1.0     0.308863     0.674753     0.093296  Biso 1.000000     O
    O   1.0     0.808862     0.674760     0.093314  Biso 1.000000     O
    O   1.0     0.104519     0.304585     0.502588  Biso 1.000000     O
    O   1.0     0.604522     0.304590     0.502575  Biso 1.000000     O
    O   1.0     0.474108     0.647083     0.917415  Biso 1.000000     O
    O   1.0     0.974108     0.647056     0.917443  Biso 1.000000     O
    O   1.0     0.275686     0.341467     0.590538  Biso 1.000000     O
    O   1.0     0.775687     0.341459     0.590546  Biso 1.000000     O
    O   1.0     0.308866     0.662879     0.916429  Biso 1.000000     O
    O   1.0     0.808867     0.662866     0.916442  Biso 1.000000     O
    O   1.0     0.440808     0.324961     0.591860  Biso 1.000000     O
    O   1.0     0.940808     0.324930     0.591901  Biso 1.000000     O
    V   1.0     0.465900     0.234300     0.499846  Biso 1.000000     V
    V   1.0     0.965898     0.234304     0.499853  Biso 1.000000     V
    V   1.0     0.283802     0.763563     0.999895  Biso 1.000000     V
    V   1.0     0.783804     0.763558     0.999899  Biso 1.000000     V
    V   1.0     0.033819     0.734333     0.000474  Biso 1.000000     V
    V   1.0     0.533822     0.734337     0.000462  Biso 1.000000     V
    V   1.0     0.215881     0.263621     0.500759  Biso 1.000000     V
    V   1.0     0.715882     0.263619     0.500755  Biso 1.000000     V
