#======================================================================

# CRYSTAL DATA

#----------------------------------------------------------------------

data_VESTA_phase_1


_pd_phase_name                         MOF
_cell_length_a                         13.71600
_cell_length_b                         14.21300
_cell_length_c                         15.98400
_cell_angle_alpha                      90.00000
_cell_angle_beta                       90.00200
_cell_angle_gamma                      90.00300
_symmetry_space_group_name_H-M         "P 1"
_symmetry_Int_Tables_number            1

loop_
_symmetry_equiv_pos_as_xyz
   "x, y, z"

loop_
   _atom_site_label
   _atom_site_occupancy
   _atom_site_fract_x
   _atom_site_fract_y
   _atom_site_fract_z
   _atom_site_adp_type
   _atom_site_B_iso_or_equiv
   _atom_site_type_symbol
    H   1.0     0.275095     0.926857     0.805996  Biso 1.000000     H
    H   1.0     0.775096     0.926809     0.805957  Biso 1.000000     H
    H   1.0     0.285238     0.043414     0.688173  Biso 1.000000     H
    H   1.0     0.785238     0.043366     0.688134  Biso 1.000000     H
    H   1.0     0.474739     0.081716     0.698400  Biso 1.000000     H
    H   1.0     0.974742     0.081689     0.698380  Biso 1.000000     H
    H   1.0     0.464564     0.964952     0.816043  Biso 1.000000     H
    H   1.0     0.964568     0.964926     0.816023  Biso 1.000000     H
    H   1.0     0.474823     0.073003     0.306079  Biso 1.000000     H
    H   1.0     0.974837     0.073034     0.306055  Biso 1.000000     H
    H   1.0     0.464716     0.956443     0.188252  Biso 1.000000     H
    H   1.0     0.964730     0.956474     0.188228  Biso 1.000000     H
    H   1.0     0.275274     0.918521     0.198262  Biso 1.000000     H
    H   1.0     0.775289     0.918567     0.198225  Biso 1.000000     H
    H   1.0     0.285412     0.035287     0.315909  Biso 1.000000     H
    H   1.0     0.785427     0.035333     0.315873  Biso 1.000000     H
    H   1.0     0.224700     0.425940     0.692522  Biso 1.000000     H
    H   1.0     0.724708     0.425933     0.692527  Biso 1.000000     H
    H   1.0     0.214414     0.542742     0.810115  Biso 1.000000     H
    H   1.0     0.714423     0.542736     0.810121  Biso 1.000000     H
    H   1.0     0.024927     0.581061     0.800091  Biso 1.000000     H
    H   1.0     0.524935     0.581064     0.800089  Biso 1.000000     H
    H   1.0     0.035167     0.464469     0.682311  Biso 1.000000     H
    H   1.0     0.535176     0.464473     0.682309  Biso 1.000000     H
    H   1.0     0.025295     0.573869     0.192367  Biso 1.000000     H
    H   1.0     0.525303     0.573867     0.192366  Biso 1.000000     H
    H   1.0     0.035566     0.457061     0.309962  Biso 1.000000     H
    H   1.0     0.535573     0.457059     0.309961  Biso 1.000000     H
    H   1.0     0.224978     0.419214     0.300266  Biso 1.000000     H
    H   1.0     0.724985     0.419228     0.300278  Biso 1.000000     H
    H   1.0     0.214753     0.535810     0.182484  Biso 1.000000     H
    H   1.0     0.714759     0.535824     0.182496  Biso 1.000000     H
    C   1.0     0.113255     0.868982     0.886398  Biso 1.000000     C
    C   1.0     0.613262     0.868978     0.886394  Biso 1.000000     C
    C   1.0     0.119264     0.939075     0.817508  Biso 1.000000     C
    C   1.0     0.619271     0.939065     0.817500  Biso 1.000000     C
    C   1.0     0.210002     0.961340     0.781921  Biso 1.000000     C
    C   1.0     0.710005     0.961308     0.781896  Biso 1.000000     C
    C   1.0     0.215564     0.025882     0.716839  Biso 1.000000     C
    C   1.0     0.715567     0.025850     0.716813  Biso 1.000000     C
    C   1.0     0.130519     0.069187     0.686621  Biso 1.000000     C
    C   1.0     0.630526     0.069178     0.686614  Biso 1.000000     C
    C   1.0     0.039836     0.047271     0.722494  Biso 1.000000     C
    C   1.0     0.539846     0.047281     0.722501  Biso 1.000000     C
    C   1.0     0.034258     0.982638     0.787504  Biso 1.000000     C
    C   1.0     0.534268     0.982648     0.787511  Biso 1.000000     C
    C   1.0     0.136283     0.137570     0.616390  Biso 1.000000     C
    C   1.0     0.636290     0.137565     0.616386  Biso 1.000000     C
    C   1.0     0.136680     0.131058     0.386379  Biso 1.000000     C
    C   1.0     0.636688     0.131061     0.386377  Biso 1.000000     C
    C   1.0     0.130676     0.060971     0.317484  Biso 1.000000     C
    C   1.0     0.630685     0.060977     0.317479  Biso 1.000000     C
    C   1.0     0.039933     0.038620     0.281945  Biso 1.000000     C
    C   1.0     0.539938     0.038607     0.281955  Biso 1.000000     C
    C   1.0     0.034390     0.974083     0.216856  Biso 1.000000     C
    C   1.0     0.534395     0.974069     0.216868  Biso 1.000000     C
    C   1.0     0.119455     0.930859     0.186595  Biso 1.000000     C
    C   1.0     0.619464     0.930866     0.186590  Biso 1.000000     C
    C   1.0     0.210146     0.952869     0.222413  Biso 1.000000     C
    C   1.0     0.710158     0.952898     0.222390  Biso 1.000000     C
    C   1.0     0.215703     0.017497     0.287428  Biso 1.000000     C
    C   1.0     0.715715     0.017526     0.287405  Biso 1.000000     C
    C   1.0     0.113699     0.862462     0.116375  Biso 1.000000     C
    C   1.0     0.613707     0.862465     0.116373  Biso 1.000000     C
    C   1.0     0.386430     0.368562     0.611690  Biso 1.000000     C
    C   1.0     0.886438     0.368560     0.611691  Biso 1.000000     C
    C   1.0     0.380495     0.438431     0.680808  Biso 1.000000     C
    C   1.0     0.880503     0.438427     0.680811  Biso 1.000000     C
    C   1.0     0.289767     0.460559     0.716500  Biso 1.000000     C
    C   1.0     0.789775     0.460553     0.716504  Biso 1.000000     C
    C   1.0     0.284128     0.525210     0.781522  Biso 1.000000     C
    C   1.0     0.784137     0.525204     0.781526  Biso 1.000000     C
    C   1.0     0.369118     0.568659     0.811714  Biso 1.000000     C
    C   1.0     0.869127     0.568655     0.811717  Biso 1.000000     C
    C   1.0     0.459833     0.546643     0.775950  Biso 1.000000     C
    C   1.0     0.959841     0.546639     0.775952  Biso 1.000000     C
    C   1.0     0.465450     0.482076     0.710848  Biso 1.000000     C
    C   1.0     0.965458     0.482072     0.710851  Biso 1.000000     C
    C   1.0     0.363220     0.637372     0.881711  Biso 1.000000     C
    C   1.0     0.863228     0.637369     0.881713  Biso 1.000000     C
    C   1.0     0.363544     0.631469     0.111688  Biso 1.000000     C
    C   1.0     0.863552     0.631473     0.111690  Biso 1.000000     C
    C   1.0     0.369474     0.561610     0.180816  Biso 1.000000     C
    C   1.0     0.869482     0.561617     0.180820  Biso 1.000000     C
    C   1.0     0.460216     0.539355     0.216422  Biso 1.000000     C
    C   1.0     0.960224     0.539360     0.216425  Biso 1.000000     C
    C   1.0     0.465845     0.474697     0.281438  Biso 1.000000     C
    C   1.0     0.965854     0.474701     0.281441  Biso 1.000000     C
    C   1.0     0.380830     0.431381     0.311724  Biso 1.000000     C
    C   1.0     0.880839     0.431388     0.311729  Biso 1.000000     C
    C   1.0     0.290099     0.453528     0.276049  Biso 1.000000     C
    C   1.0     0.790107     0.453539     0.276058  Biso 1.000000     C
    C   1.0     0.284491     0.518102     0.210952  Biso 1.000000     C
    C   1.0     0.784499     0.518114     0.210961  Biso 1.000000     C
    C   1.0     0.386730     0.362658     0.381712  Biso 1.000000     C
    C   1.0     0.886739     0.362661     0.381714  Biso 1.000000     C
    O   1.0     0.358327     0.806067     0.000135  Biso 1.000000     O
    O   1.0     0.858335     0.806067     0.000136  Biso 1.000000     O
    O   1.0     0.028499     0.847528     0.913398  Biso 1.000000     O
    O   1.0     0.528507     0.847529     0.913398  Biso 1.000000     O
    O   1.0     0.220732     0.156487     0.587238  Biso 1.000000     O
    O   1.0     0.720740     0.156485     0.587235  Biso 1.000000     O
    O   1.0     0.193713     0.834896     0.913363  Biso 1.000000     O
    O   1.0     0.693721     0.834893     0.913361  Biso 1.000000     O
    O   1.0     0.055865     0.172516     0.590139  Biso 1.000000     O
    O   1.0     0.555873     0.172516     0.590140  Biso 1.000000     O
    O   1.0     0.391647     0.193950     0.500148  Biso 1.000000     O
    O   1.0     0.891656     0.193951     0.500150  Biso 1.000000     O
    O   1.0     0.221439     0.152498     0.413389  Biso 1.000000     O
    O   1.0     0.721448     0.152500     0.413387  Biso 1.000000     O
    O   1.0     0.029249     0.843542     0.087223  Biso 1.000000     O
    O   1.0     0.529257     0.843542     0.087223  Biso 1.000000     O
    O   1.0     0.056220     0.165141     0.413345  Biso 1.000000     O
    O   1.0     0.556228     0.165140     0.413346  Biso 1.000000     O
    O   1.0     0.194114     0.827507     0.090136  Biso 1.000000     O
    O   1.0     0.694123     0.827509     0.090135  Biso 1.000000     O
    O   1.0     0.141682     0.305158     0.497224  Biso 1.000000     O
    O   1.0     0.641690     0.305159     0.497220  Biso 1.000000     O
    O   1.0     0.470971     0.348845     0.583137  Biso 1.000000     O
    O   1.0     0.970979     0.348844     0.583137  Biso 1.000000     O
    O   1.0     0.278560     0.658155     0.909315  Biso 1.000000     O
    O   1.0     0.778569     0.658154     0.909317  Biso 1.000000     O
    O   1.0     0.306082     0.332916     0.586054  Biso 1.000000     O
    O   1.0     0.806090     0.332915     0.586054  Biso 1.000000     O
    O   1.0     0.443673     0.670842     0.909310  Biso 1.000000     O
    O   1.0     0.943681     0.670842     0.909310  Biso 1.000000     O
    O   1.0     0.108291     0.694869     0.997235  Biso 1.000000     O
    O   1.0     0.608300     0.694868     0.997233  Biso 1.000000     O
    O   1.0     0.279009     0.651186     0.083123  Biso 1.000000     O
    O   1.0     0.779017     0.651188     0.083124  Biso 1.000000     O
    O   1.0     0.471391     0.341872     0.409320  Biso 1.000000     O
    O   1.0     0.971400     0.341872     0.409320  Biso 1.000000     O
    O   1.0     0.443894     0.667102     0.086049  Biso 1.000000     O
    O   1.0     0.943903     0.667103     0.086050  Biso 1.000000     O
    O   1.0     0.306272     0.329191     0.409301  Biso 1.000000     O
    O   1.0     0.806281     0.329193     0.409302  Biso 1.000000     O
    V   1.0     0.469077     0.763975    -0.000892  Biso 1.000000     V
    V   1.0     0.969085     0.763976    -0.000893  Biso 1.000000     V
    V   1.0     0.280894     0.236046     0.499108  Biso 1.000000     V
    V   1.0     0.780902     0.236045     0.499107  Biso 1.000000     V
    V   1.0     0.030747     0.263626     0.498691  Biso 1.000000     V
    V   1.0     0.530755     0.263626     0.498692  Biso 1.000000     V
    V   1.0     0.219221     0.736404     0.998694  Biso 1.000000     V
    V   1.0     0.719229     0.736405     0.998695  Biso 1.000000     V
