#======================================================================

# CRYSTAL DATA

#----------------------------------------------------------------------

data_VESTA_phase_1


_pd_phase_name                         MOF
_cell_length_a                         14.40300
_cell_length_b                         17.85100
_cell_length_c                         31.10800
_cell_angle_alpha                      99.62900
_cell_angle_beta                       90.00000
_cell_angle_gamma                      113.79200
_symmetry_space_group_name_H-M         "P 1"
_symmetry_Int_Tables_number            1

loop_
_symmetry_equiv_pos_as_xyz
   "x, y, z"

loop_
   _atom_site_label
   _atom_site_occupancy
   _atom_site_fract_x
   _atom_site_fract_y
   _atom_site_fract_z
   _atom_site_adp_type
   _atom_site_B_iso_or_equiv
   _atom_site_type_symbol
    H   1.0     0.859083     0.352574     0.642621  Biso 1.000000     H
    H   1.0     0.836095     0.460740     0.697846  Biso 1.000000     H
    H   1.0     0.519547     0.355759     0.649352  Biso 1.000000     H
    H   1.0     0.554974     0.253321     0.595598  Biso 1.000000     H
    H   1.0     0.393233     0.458490     0.675159  Biso 1.000000     H
    H   1.0     0.231771     0.481549     0.672293  Biso 1.000000     H
    H   1.0     0.337932     0.674143     0.778973  Biso 1.000000     H
    H   1.0     0.504143     0.659346     0.786118  Biso 1.000000     H
    H   1.0     0.690067     0.685084     0.840926  Biso 1.000000     H
    H   1.0     0.823820     0.776985     0.898984  Biso 1.000000     H
    H   1.0     0.028464     0.706281     0.838029  Biso 1.000000     H
    H   1.0     0.915037     0.611181     0.777442  Biso 1.000000     H
    H   1.0     0.955754     0.752367     0.992865  Biso 1.000000     H
    H   1.0     0.850491     0.811533     0.024108  Biso 1.000000     H
    H   1.0     0.830993     0.971422     0.992655  Biso 1.000000     H
    H   1.0     0.965404     0.956557     0.943777  Biso 1.000000     H
    H   1.0     0.522589     0.000000     0.105786  Biso 1.000000     H
    H   1.0     0.450087     0.096555     0.102787  Biso 1.000000     H
    H   1.0     0.599033     0.123323     0.000000  Biso 1.000000     H
    H   1.0     0.699684     0.067361     0.000845  Biso 1.000000     H
    H   1.0     0.619716     0.711634     0.069699  Biso 1.000000     H
    H   1.0     0.537675     0.613715     0.122118  Biso 1.000000     H
    H   1.0     0.529788     0.805598     0.215297  Biso 1.000000     H
    H   1.0     0.604442     0.909870     0.165587  Biso 1.000000     H
    H   1.0     0.516338     0.378290     0.132455  Biso 1.000000     H
    H   1.0     0.647212     0.486770     0.187677  Biso 1.000000     H
    H   1.0     0.859283     0.382019     0.139615  Biso 1.000000     H
    H   1.0     0.721661     0.279235     0.085855  Biso 1.000000     H
    H   1.0     0.075156     0.484605     0.165389  Biso 1.000000     H
    H   1.0     0.259638     0.507647     0.162412  Biso 1.000000     H
    H   1.0     0.346482     0.700807     0.268818  Biso 1.000000     H
    H   1.0     0.165515     0.686056     0.276064  Biso 1.000000     H
    H   1.0     0.004546     0.711292     0.331153  Biso 1.000000     H
    H   1.0     0.974746     0.802956     0.389156  Biso 1.000000     H
    H   1.0     0.687045     0.731936     0.327946  Biso 1.000000     H
    H   1.0     0.718384     0.637052     0.267409  Biso 1.000000     H
    H   1.0     0.817957     0.778497     0.482939  Biso 1.000000     H
    H   1.0     0.959101     0.785684     0.534200  Biso 1.000000     H
    H   1.0     0.149265     0.997416     0.482551  Biso 1.000000     H
    H   1.0    -0.000081     0.982497     0.433697  Biso 1.000000     H
    H   1.0     0.479044     0.990450     0.615906  Biso 1.000000     H
    H   1.0     0.644644     0.071083     0.612861  Biso 1.000000     H
    H   1.0     0.545616     0.149339     0.511121  Biso 1.000000     H
    H   1.0     0.365742     0.041201     0.510780  Biso 1.000000     H
    H   1.0     0.077727     0.685657     0.579516  Biso 1.000000     H
    H   1.0     0.061103     0.587661     0.631973  Biso 1.000000     H
    H   1.0     0.259936     0.779459     0.725467  Biso 1.000000     H
    H   1.0     0.290265     0.883816     0.675747  Biso 1.000000     H
    H   1.0     0.477314     0.602110     0.887586  Biso 1.000000     H
    H   1.0     0.346440     0.493627     0.832365  Biso 1.000000     H
    H   1.0     0.134367     0.598378     0.880424  Biso 1.000000     H
    H   1.0     0.271989     0.701165     0.934184  Biso 1.000000     H
    H   1.0     0.918494     0.495787     0.854653  Biso 1.000000     H
    H   1.0     0.734012     0.472744     0.857628  Biso 1.000000     H
    H   1.0     0.647171     0.279587     0.751221  Biso 1.000000     H
    H   1.0     0.828138     0.294340     0.743976  Biso 1.000000     H
    H   1.0     0.989109     0.269112     0.688886  Biso 1.000000     H
    H   1.0     0.018906     0.177450     0.630882  Biso 1.000000     H
    H   1.0     0.306601     0.248455     0.692094  Biso 1.000000     H
    H   1.0     0.275264     0.343337     0.752632  Biso 1.000000     H
    H   1.0     0.175682     0.201899     0.537098  Biso 1.000000     H
    H   1.0     0.034534     0.194706     0.485836  Biso 1.000000     H
    H   1.0     0.844378    -0.017022     0.537490  Biso 1.000000     H
    H   1.0     0.993729    -0.002096     0.586344  Biso 1.000000     H
    H   1.0     0.514594    -0.010062     0.404133  Biso 1.000000     H
    H   1.0     0.348993     0.909309     0.407179  Biso 1.000000     H
    H   1.0     0.448020     0.831049     0.508918  Biso 1.000000     H
    H   1.0     0.627895     0.939184     0.509258  Biso 1.000000     H
    H   1.0     0.915909     0.294732     0.440523  Biso 1.000000     H
    H   1.0     0.932525     0.392729     0.388067  Biso 1.000000     H
    H   1.0     0.733694     0.200930     0.294572  Biso 1.000000     H
    H   1.0     0.703372     0.096572     0.344291  Biso 1.000000     H
    H   1.0     0.134547     0.627817     0.377419  Biso 1.000000     H
    H   1.0     0.157533     0.519651     0.322193  Biso 1.000000     H
    H   1.0     0.474083     0.624632     0.370685  Biso 1.000000     H
    H   1.0     0.438658     0.727072     0.424438  Biso 1.000000     H
    H   1.0     0.600396     0.521903     0.344879  Biso 1.000000     H
    H   1.0     0.761858     0.498844     0.347745  Biso 1.000000     H
    H   1.0     0.655695     0.306248     0.241067  Biso 1.000000     H
    H   1.0     0.489485     0.321045     0.233921  Biso 1.000000     H
    H   1.0     0.303560     0.295306     0.179112  Biso 1.000000     H
    H   1.0     0.169806     0.203405     0.121054  Biso 1.000000     H
    H   1.0     0.965163     0.274109     0.182010  Biso 1.000000     H
    H   1.0     0.078591     0.369208     0.242598  Biso 1.000000     H
    H   1.0     0.037878     0.228024     0.027174  Biso 1.000000     H
    H   1.0     0.143145     0.168860     0.995933  Biso 1.000000     H
    H   1.0     0.162641     0.008970     0.027387  Biso 1.000000     H
    H   1.0     0.028229     0.023835     0.076264  Biso 1.000000     H
    H   1.0     0.471053    -0.035648     0.914257  Biso 1.000000     H
    H   1.0     0.543563     0.883849     0.917256  Biso 1.000000     H
    H   1.0     0.394611     0.857070    -0.001216  Biso 1.000000     H
    H   1.0     0.293951     0.913027     0.000000  Biso 1.000000     H
    H   1.0     0.373926     0.268762     0.950342  Biso 1.000000     H
    H   1.0     0.455972     0.366678     0.897923  Biso 1.000000     H
    H   1.0     0.463860     0.174794     0.804746  Biso 1.000000     H
    H   1.0     0.389199     0.070523     0.854456  Biso 1.000000     H
    C   1.0     0.785352     0.355980     0.644987  Biso 1.000000     C
    C   1.0     0.771869     0.415911     0.675863  Biso 1.000000     C
    C   1.0     0.675524     0.417574     0.677744  Biso 1.000000     C
    C   1.0     0.596034     0.357960     0.648529  Biso 1.000000     C
    C   1.0     0.615807     0.300331     0.618512  Biso 1.000000     C
    C   1.0     0.658089     0.481200     0.709694  Biso 1.000000     C
    C   1.0     0.558364     0.548237     0.733811  Biso 1.000000     C
    C   1.0     0.713947     0.587285     0.768238  Biso 1.000000     C
    C   1.0     0.461571     0.558516     0.730576  Biso 1.000000     C
    C   1.0     0.383834     0.507429     0.698288  Biso 1.000000     C
    C   1.0     0.295028     0.520163     0.696444  Biso 1.000000     C
    C   1.0     0.354996     0.628551     0.756286  Biso 1.000000     C
    C   1.0     0.445806     0.619750     0.760252  Biso 1.000000     C
    C   1.0     0.792093     0.641406     0.803897  Biso 1.000000     C
    C   1.0     0.767059     0.688683     0.838854  Biso 1.000000     C
    C   1.0     0.841989     0.740066     0.871479  Biso 1.000000     C
    C   1.0     0.962602     0.700096     0.837602  Biso 1.000000     C
    C   1.0     0.891935     0.646954     0.803737  Biso 1.000000     C
    C   1.0     0.925486     0.799692     0.994195  Biso 1.000000     C
    C   1.0     0.880944     0.856029     0.002281  Biso 1.000000     C
    C   1.0     0.844629     0.917776     0.001689  Biso 1.000000     C
    C   1.0     0.857356     0.922523     0.993556  Biso 1.000000     C
    C   1.0     0.930769     0.914481     0.966562  Biso 1.000000     C
    C   1.0     0.763787     0.922351     0.030086  Biso 1.000000     C
    C   1.0     0.660629     0.877301     0.083620  Biso 1.000000     C
    C   1.0     0.661154     0.985922     0.055027  Biso 1.000000     C
    C   1.0     0.611095     0.017473     0.053423  Biso 1.000000     C
    C   1.0     0.539636     0.025372     0.082387  Biso 1.000000     C
    C   1.0     0.505190     0.087112     0.080921  Biso 1.000000     C
    C   1.0     0.605007     0.131393     0.023743  Biso 1.000000     C
    C   1.0     0.643718     0.071559     0.023462  Biso 1.000000     C
    C   1.0     0.617741     0.818044     0.113943  Biso 1.000000     C
    C   1.0     0.600704     0.734219     0.101714  Biso 1.000000     C
    C   1.0     0.555094     0.680069     0.130282  Biso 1.000000     C
    C   1.0     0.548651     0.787449     0.182352  Biso 1.000000     C
    C   1.0     0.591025     0.844805     0.155109  Biso 1.000000     C
    C   1.0     0.593522     0.381820     0.134912  Biso 1.000000     C
    C   1.0     0.666779     0.441931     0.165785  Biso 1.000000     C
    C   1.0     0.764829     0.443706     0.167796  Biso 1.000000     C
    C   1.0     0.784936     0.384091     0.138687  Biso 1.000000     C
    C   1.0     0.707674     0.326277     0.108673  Biso 1.000000     C
    C   1.0     0.845761     0.507459     0.199752  Biso 1.000000     C
    C   1.0    -0.000041     0.574614     0.223928  Biso 1.000000     C
    C   1.0     0.895788     0.613504     0.258317  Biso 1.000000     C
    C   1.0     0.107041     0.584916     0.220674  Biso 1.000000     C
    C   1.0     0.133575     0.533671     0.188431  Biso 1.000000     C
    C   1.0     0.235099     0.546395     0.186526  Biso 1.000000     C
    C   1.0     0.283746     0.655101     0.246211  Biso 1.000000     C
    C   1.0     0.184151     0.646324     0.250234  Biso 1.000000     C
    C   1.0     0.871518     0.667473     0.293980  Biso 1.000000     C
    C   1.0     0.943630     0.714780     0.329000  Biso 1.000000     C
    C   1.0     0.919810     0.766033     0.361603  Biso 1.000000     C
    C   1.0     0.759332     0.725885     0.327590  Biso 1.000000     C
    C   1.0     0.777135     0.672868     0.293745  Biso 1.000000     C
    C   1.0     0.895560     0.825789     0.484231  Biso 1.000000     C
    C   1.0     0.973120     0.830131     0.512345  Biso 1.000000     C
    C   1.0     0.058660     0.891824     0.511695  Biso 1.000000     C
    C   1.0     0.074004     0.948544     0.483489  Biso 1.000000     C
    C   1.0     0.000000     0.940471     0.456507  Biso 1.000000     C
    C   1.0     0.144085     0.896422     0.540098  Biso 1.000000     C
    C   1.0     0.202171     0.851348     0.593629  Biso 1.000000     C
    C   1.0     0.310277     0.960005     0.565062  Biso 1.000000     C
    C   1.0     0.404569    -0.008412     0.563451  Biso 1.000000     C
    C   1.0     0.483950    -0.000319     0.592461  Biso 1.000000     C
    C   1.0     0.580077     0.061490     0.590964  Biso 1.000000     C
    C   1.0     0.524425     0.105467     0.533697  Biso 1.000000     C
    C   1.0     0.425935     0.045562     0.533435  Biso 1.000000     C
    C   1.0     0.185644     0.792036     0.623933  Biso 1.000000     C
    C   1.0     0.118950     0.708205     0.611611  Biso 1.000000     C
    C   1.0     0.110007     0.654014     0.640199  Biso 1.000000     C
    C   1.0     0.223310     0.761356     0.692450  Biso 1.000000     C
    C   1.0     0.238686     0.818754     0.665193  Biso 1.000000     C
    C   1.0     0.400131     0.598580     0.885129  Biso 1.000000     C
    C   1.0     0.326873     0.538466     0.854257  Biso 1.000000     C
    C   1.0     0.228820     0.536685     0.852248  Biso 1.000000     C
    C   1.0     0.208715     0.596307     0.881353  Biso 1.000000     C
    C   1.0     0.285978     0.654124     0.911365  Biso 1.000000     C
    C   1.0     0.147892     0.472941     0.820288  Biso 1.000000     C
    C   1.0     0.993693     0.405784     0.796111  Biso 1.000000     C
    C   1.0     0.097866     0.366898     0.761722  Biso 1.000000     C
    C   1.0     0.886610     0.395474     0.799368  Biso 1.000000     C
    C   1.0     0.860076     0.446721     0.831611  Biso 1.000000     C
    C   1.0     0.758552     0.433998     0.833514  Biso 1.000000     C
    C   1.0     0.709907     0.325294     0.773829  Biso 1.000000     C
    C   1.0     0.809502     0.334071     0.769806  Biso 1.000000     C
    C   1.0     0.122136     0.312929     0.726059  Biso 1.000000     C
    C   1.0     0.050022     0.265620     0.691040  Biso 1.000000     C
    C   1.0     0.073840     0.214368     0.658436  Biso 1.000000     C
    C   1.0     0.234316     0.254509     0.692450  Biso 1.000000     C
    C   1.0     0.216514     0.307525     0.726295  Biso 1.000000     C
    C   1.0     0.098080     0.154607     0.535806  Biso 1.000000     C
    C   1.0     0.020518     0.150263     0.507693  Biso 1.000000     C
    C   1.0     0.934980     0.088565     0.508341  Biso 1.000000     C
    C   1.0     0.919638     0.031852     0.536552  Biso 1.000000     C
    C   1.0    -0.011391     0.039928     0.563532  Biso 1.000000     C
    C   1.0     0.849551     0.083973     0.479944  Biso 1.000000     C
    C   1.0     0.791463     0.129046     0.426413  Biso 1.000000     C
    C   1.0     0.683360     0.020388     0.454979  Biso 1.000000     C
    C   1.0     0.589070     0.988796     0.456585  Biso 1.000000     C
    C   1.0     0.509687     0.980709     0.427579  Biso 1.000000     C
    C   1.0     0.413559     0.918899     0.429076  Biso 1.000000     C
    C   1.0     0.469212     0.874921     0.486341  Biso 1.000000     C
    C   1.0     0.567702     0.934827     0.486605  Biso 1.000000     C
    C   1.0     0.807993     0.188352     0.396104  Biso 1.000000     C
    C   1.0     0.874681     0.272184     0.408429  Biso 1.000000     C
    C   1.0     0.883624     0.326375     0.379840  Biso 1.000000     C
    C   1.0     0.770321     0.219034     0.327589  Biso 1.000000     C
    C   1.0     0.754946     0.161635     0.354846  Biso 1.000000     C
    C   1.0     0.208277     0.624410     0.375053  Biso 1.000000     C
    C   1.0     0.221759     0.564478     0.344177  Biso 1.000000     C
    C   1.0     0.318106     0.562821     0.342293  Biso 1.000000     C
    C   1.0     0.397596     0.622430     0.371509  Biso 1.000000     C
    C   1.0     0.377824     0.680061     0.401525  Biso 1.000000     C
    C   1.0     0.335534     0.499186     0.310347  Biso 1.000000     C
    C   1.0     0.435262     0.432152     0.286229  Biso 1.000000     C
    C   1.0     0.279675     0.393099     0.251803  Biso 1.000000     C
    C   1.0     0.532053     0.421871     0.289465  Biso 1.000000     C
    C   1.0     0.609791     0.472961     0.321751  Biso 1.000000     C
    C   1.0     0.698600     0.460230     0.323594  Biso 1.000000     C
    C   1.0     0.638631     0.351841     0.263753  Biso 1.000000     C
    C   1.0     0.547819     0.360638     0.259788  Biso 1.000000     C
    C   1.0     0.201537     0.338990     0.216140  Biso 1.000000     C
    C   1.0     0.226568     0.291706     0.181184  Biso 1.000000     C
    C   1.0     0.151636     0.240321     0.148560  Biso 1.000000     C
    C   1.0     0.031024     0.280292     0.182438  Biso 1.000000     C
    C   1.0     0.101693     0.333436     0.216302  Biso 1.000000     C
    C   1.0     0.068146     0.180699     0.025845  Biso 1.000000     C
    C   1.0     0.112695     0.124365     0.000000  Biso 1.000000     C
    C   1.0     0.149005     0.062615     0.000000  Biso 1.000000     C
    C   1.0     0.136282     0.057872     0.026487  Biso 1.000000     C
    C   1.0     0.062862     0.065911     0.053479  Biso 1.000000     C
    C   1.0     0.229857     0.058047     0.989958  Biso 1.000000     C
    C   1.0     0.333015     0.103097     0.936423  Biso 1.000000     C
    C   1.0     0.332490    -0.005525     0.965017  Biso 1.000000     C
    C   1.0     0.382541     0.962919     0.966617  Biso 1.000000     C
    C   1.0     0.454008     0.955027     0.937656  Biso 1.000000     C
    C   1.0     0.488456     0.893289     0.939121  Biso 1.000000     C
    C   1.0     0.388635     0.849000     0.996297  Biso 1.000000     C
    C   1.0     0.349921     0.908833     0.996578  Biso 1.000000     C
    C   1.0     0.375897     0.162350     0.906098  Biso 1.000000     C
    C   1.0     0.392939     0.246175     0.918328  Biso 1.000000     C
    C   1.0     0.438553     0.300325     0.889759  Biso 1.000000     C
    C   1.0     0.444997     0.192943     0.837690  Biso 1.000000     C
    C   1.0     0.402618     0.135587     0.864934  Biso 1.000000     C
    N   1.0     0.708873     0.299142     0.616556  Biso 1.000000     N
    N   1.0     0.568987     0.487828     0.704958  Biso 1.000000     N
    N   1.0     0.629006     0.600711     0.765396  Biso 1.000000     N
    N   1.0     0.732620     0.528705     0.741095  Biso 1.000000     N
    N   1.0     0.280868     0.580161     0.724705  Biso 1.000000     N
    N   1.0     0.938600     0.746441     0.870942  Biso 1.000000     N
    N   1.0     0.963518     0.853416     0.966379  Biso 1.000000     N
    N   1.0     0.729837     0.867222     0.057174  Biso 1.000000     N
    N   1.0     0.626036     0.937007     0.085002  Biso 1.000000     N
    N   1.0     0.729253     0.980802     0.026539  Biso 1.000000     N
    N   1.0     0.537742     0.139754     0.052246  Biso 1.000000     N
    N   1.0     0.529297     0.706026     0.169977  Biso 1.000000     N
    N   1.0     0.613352     0.324922     0.106609  Biso 1.000000     N
    N   1.0     0.941526     0.514152     0.195074  Biso 1.000000     N
    N   1.0     0.994195     0.626979     0.255541  Biso 1.000000     N
    N   1.0     0.818611     0.554883     0.231146  Biso 1.000000     N
    N   1.0     0.309366     0.606535     0.214681  Biso 1.000000     N
    N   1.0     0.829498     0.772275     0.360986  Biso 1.000000     N
    N   1.0     0.911219     0.879443     0.456378  Biso 1.000000     N
    N   1.0     0.122909     0.841252     0.567160  Biso 1.000000     N
    N   1.0     0.296489     0.911041     0.595016  Biso 1.000000     N
    N   1.0     0.237066     0.954876     0.536565  Biso 1.000000     N
    N   1.0     0.600091     0.114021     0.562233  Biso 1.000000     N
    N   1.0     0.161269     0.679946     0.680002  Biso 1.000000     N
    N   1.0     0.380300     0.655477     0.913432  Biso 1.000000     N
    N   1.0     0.052127     0.466248     0.824964  Biso 1.000000     N
    N   1.0    -0.000545     0.353404     0.764506  Biso 1.000000     N
    N   1.0     0.175041     0.425509     0.788898  Biso 1.000000     N
    N   1.0     0.684286     0.373856     0.805360  Biso 1.000000     N
    N   1.0     0.164153     0.208128     0.659051  Biso 1.000000     N
    N   1.0     0.082424     0.100956     0.563660  Biso 1.000000     N
    N   1.0     0.870729     0.139135     0.452877  Biso 1.000000     N
    N   1.0     0.697154     0.069336     0.425017  Biso 1.000000     N
    N   1.0     0.756574     0.025510     0.483473  Biso 1.000000     N
    N   1.0     0.393546     0.866367     0.457805  Biso 1.000000     N
    N   1.0     0.832360     0.300444     0.340038  Biso 1.000000     N
    N   1.0     0.284759     0.681250     0.403482  Biso 1.000000     N
    N   1.0     0.424651     0.492578     0.315073  Biso 1.000000     N
    N   1.0     0.364629     0.379689     0.254638  Biso 1.000000     N
    N   1.0     0.260997     0.451674     0.278949  Biso 1.000000     N
    N   1.0     0.712758     0.400230     0.295334  Biso 1.000000     N
    N   1.0     0.055026     0.233949     0.149096  Biso 1.000000     N
    N   1.0     0.030111     0.126975     0.053660  Biso 1.000000     N
    N   1.0     0.263797     0.113168     0.962866  Biso 1.000000     N
    N   1.0     0.367599     0.043385     0.935039  Biso 1.000000     N
    N   1.0     0.264377    -0.000414     0.993500  Biso 1.000000     N
    N   1.0     0.455906     0.840646     0.967796  Biso 1.000000     N
    N   1.0     0.464349     0.274367     0.850065  Biso 1.000000     N
   Cl   1.0     0.115308     0.756230     0.943146  Biso 1.000000    Cl
   Cl   1.0     0.116795     0.949182     0.892777  Biso 1.000000    Cl
   Cl   1.0     0.751207     0.262847     0.506028  Biso 1.000000    Cl
   Cl   1.0     0.850765     0.183862     0.602991  Biso 1.000000    Cl
   Cl   1.0     0.152369     0.669552     0.788945  Biso 1.000000    Cl
   Cl   1.0     0.027401     0.475293     0.689627  Biso 1.000000    Cl
   Cl   1.0     0.649859     0.781835     0.433218  Biso 1.000000    Cl
   Cl   1.0     0.840649     0.974822     0.382683  Biso 1.000000    Cl
   Cl   1.0     0.506406     0.236551     0.000000  Biso 1.000000    Cl
   Cl   1.0     0.356499     0.209155     0.093033  Biso 1.000000    Cl
   Cl   1.0     0.526979     0.695869     0.278924  Biso 1.000000    Cl
   Cl   1.0     0.457983     0.501432     0.179701  Biso 1.000000    Cl
   Cl   1.0     0.343784     0.198568     0.586814  Biso 1.000000    Cl
   Cl   1.0     0.153011     0.005585     0.637354  Biso 1.000000    Cl
   Cl   1.0     0.487245     0.743844     0.003885  Biso 1.000000    Cl
   Cl   1.0     0.637149     0.771251     0.927005  Biso 1.000000    Cl
   Cl   1.0     0.466670     0.284521     0.741118  Biso 1.000000    Cl
   Cl   1.0     0.535667     0.478960     0.840340  Biso 1.000000    Cl
   Cl   1.0     0.878323     0.224164     0.076890  Biso 1.000000    Cl
   Cl   1.0     0.876836     0.031212     0.127264  Biso 1.000000    Cl
   Cl   1.0     0.242428     0.717540     0.514011  Biso 1.000000    Cl
   Cl   1.0     0.142874     0.796532     0.417050  Biso 1.000000    Cl
   Cl   1.0     0.841258     0.310838     0.231096  Biso 1.000000    Cl
   Cl   1.0     0.966225     0.505097     0.330413  Biso 1.000000    Cl
   Zn   1.0     0.043158     0.831374     0.917776  Biso 1.000000    Zn
   Zn   1.0     0.740585     0.216776     0.568469  Biso 1.000000    Zn
   Zn   1.0     0.144973     0.597327     0.722474  Biso 1.000000    Zn
   Zn   1.0     0.796914     0.857124     0.407745  Biso 1.000000    Zn
   Zn   1.0     0.499561     0.242224     0.058476  Biso 1.000000    Zn
   Zn   1.0     0.462376     0.623517     0.212443  Biso 1.000000    Zn
   Zn   1.0     0.196731     0.123282     0.612291  Biso 1.000000    Zn
   Zn   1.0     0.494092     0.738181     0.961566  Biso 1.000000    Zn
   Zn   1.0     0.531282     0.356876     0.807599  Biso 1.000000    Zn
   Zn   1.0     0.950461     0.149016     0.102262  Biso 1.000000    Zn
   Zn   1.0     0.253050     0.763611     0.451571  Biso 1.000000    Zn
   Zn   1.0     0.848651     0.383062     0.297567  Biso 1.000000    Zn
