#======================================================================

# CRYSTAL DATA

#----------------------------------------------------------------------

data_VESTA_phase_1


_pd_phase_name                         MOF
_cell_length_a                         16.33400
_cell_length_b                         16.34300
_cell_length_c                         16.34400
_cell_angle_alpha                      92.27600
_cell_angle_beta                       92.42500
_cell_angle_gamma                      92.39400
_symmetry_space_group_name_H-M         "P 1"
_symmetry_Int_Tables_number            1

loop_
_symmetry_equiv_pos_as_xyz
   "x, y, z"

loop_
   _atom_site_label
   _atom_site_occupancy
   _atom_site_fract_x
   _atom_site_fract_y
   _atom_site_fract_z
   _atom_site_adp_type
   _atom_site_B_iso_or_equiv
   _atom_site_type_symbol
    H   1.0     0.500142     0.028453     0.387365  Biso 1.000000     H
    H   1.0     0.357953     0.977478     0.342625  Biso 1.000000     H
    H   1.0     0.275175     0.223889     0.363445  Biso 1.000000     H
    H   1.0     0.416045     0.273830     0.411505  Biso 1.000000     H
    H   1.0     0.965894     0.122502     0.283678  Biso 1.000000     H
    H   1.0     0.099913     0.072150     0.235503  Biso 1.000000     H
    H   1.0     0.211686     0.130568     0.475176  Biso 1.000000     H
    H   1.0     0.079443     0.182927     0.521341  Biso 1.000000     H
    H   1.0     0.664834     0.229028     0.172858  Biso 1.000000     H
    H   1.0     0.622256     0.272461     0.033227  Biso 1.000000     H
    H   1.0     0.592882     0.517377     0.131375  Biso 1.000000     H
    H   1.0     0.631065     0.472990     0.271294  Biso 1.000000     H
    H   1.0     0.388088     0.500757     0.031016  Biso 1.000000     H
    H   1.0     0.343590     0.359088     0.979054  Biso 1.000000     H
    H   1.0     0.363651     0.274337     0.224931  Biso 1.000000     H
    H   1.0     0.411450     0.414749     0.275945  Biso 1.000000     H
    H   1.0     0.281440     0.966353     0.121670  Biso 1.000000     H
    H   1.0     0.234722     0.101051     0.071550  Biso 1.000000     H
    H   1.0     0.475171     0.210374     0.132095  Biso 1.000000     H
    H   1.0     0.519919     0.077426     0.184180  Biso 1.000000     H
    H   1.0     0.172783     0.663326     0.230878  Biso 1.000000     H
    H   1.0     0.033100     0.619501     0.273163  Biso 1.000000     H
    H   1.0     0.130067     0.591577     0.519067  Biso 1.000000     H
    H   1.0     0.270111     0.630917     0.475843  Biso 1.000000     H
    H   1.0     0.028868     0.386576     0.501641  Biso 1.000000     H
    H   1.0     0.977759     0.342389     0.359523  Biso 1.000000     H
    H   1.0     0.224243     0.364146     0.276724  Biso 1.000000     H
    H   1.0     0.274319     0.411883     0.417490  Biso 1.000000     H
    H   1.0     0.121581     0.281263     0.968064  Biso 1.000000     H
    H   1.0     0.071203     0.234359     0.102570  Biso 1.000000     H
    H   1.0     0.131465     0.474554     0.211903  Biso 1.000000     H
    H   1.0     0.183807     0.519442     0.079130  Biso 1.000000     H
    H   1.0     0.228740     0.172515     0.663574  Biso 1.000000     H
    H   1.0     0.270451     0.032748     0.619794  Biso 1.000000     H
    H   1.0     0.516751     0.128646     0.591928  Biso 1.000000     H
    H   1.0     0.474133     0.268837     0.631326  Biso 1.000000     H
    H   1.0     0.971180     0.497825     0.613284  Biso 1.000000     H
    H   1.0     0.022231     0.639969     0.657428  Biso 1.000000     H
    H   1.0     0.775670     0.722743     0.635756  Biso 1.000000     H
    H   1.0     0.725653     0.581939     0.588072  Biso 1.000000     H
    H   1.0     0.878605     0.031502     0.718662  Biso 1.000000     H
    H   1.0     0.928874     0.896886     0.765543  Biso 1.000000     H
    H   1.0     0.868251     0.787602     0.525390  Biso 1.000000     H
    H   1.0     0.815999     0.920459     0.480530  Biso 1.000000     H
    H   1.0     0.770725     0.336283     0.826875  Biso 1.000000     H
    H   1.0     0.729484     0.380019     0.966795  Biso 1.000000     H
    H   1.0     0.482908     0.408058     0.871584  Biso 1.000000     H
    H   1.0     0.525056     0.368701     0.731237  Biso 1.000000     H
    H   1.0     0.499667     0.612428     0.971291  Biso 1.000000     H
    H   1.0     0.641786     0.657180     0.022293  Biso 1.000000     H
    H   1.0     0.724603     0.636406     0.775978  Biso 1.000000     H
    H   1.0     0.583789     0.588248     0.725964  Biso 1.000000     H
    H   1.0     0.033823     0.716302     0.877511  Biso 1.000000     H
    H   1.0     0.899780     0.764456     0.927824  Biso 1.000000     H
    H   1.0     0.788174     0.524743     0.869407  Biso 1.000000     H
    H   1.0     0.920443     0.478607     0.817079  Biso 1.000000     H
    H   1.0     0.335215     0.827184     0.770944  Biso 1.000000     H
    H   1.0     0.377828     0.966770     0.727474  Biso 1.000000     H
    H   1.0     0.407363     0.868451     0.482665  Biso 1.000000     H
    H   1.0     0.369079     0.728603     0.527075  Biso 1.000000     H
    H   1.0     0.612936     0.969209     0.499735  Biso 1.000000     H
    H   1.0     0.656769     0.021139     0.641617  Biso 1.000000     H
    H   1.0     0.636347     0.775176     0.726156  Biso 1.000000     H
    H   1.0     0.588993     0.724254     0.585564  Biso 1.000000     H
    H   1.0     0.717813     0.877734     0.034182  Biso 1.000000     H
    H   1.0     0.764865     0.928255     0.899838  Biso 1.000000     H
    H   1.0     0.524616     0.868159     0.789750  Biso 1.000000     H
    H   1.0     0.479568     0.815579     0.922364  Biso 1.000000     H
    H   1.0     0.827222     0.769122     0.336425  Biso 1.000000     H
    H   1.0     0.966892     0.726807     0.380407  Biso 1.000000     H
    H   1.0     0.869936     0.480964     0.408446  Biso 1.000000     H
    H   1.0     0.729895     0.524229     0.369006  Biso 1.000000     H
    C   1.0     0.549988     0.185210     0.432193  Biso 1.000000     C
    C   1.0     0.466748     0.154406     0.402809  Biso 1.000000     C
    C   1.0     0.450676     0.070857     0.382576  Biso 1.000000     C
    C   1.0     0.371882     0.042231     0.357610  Biso 1.000000     C
    C   1.0     0.309094     0.097474     0.351394  Biso 1.000000     C
    C   1.0     0.324505     0.181419     0.369243  Biso 1.000000     C
    C   1.0     0.402965     0.209132     0.395759  Biso 1.000000     C
    C   1.0     0.935351     0.185018     0.434450  Biso 1.000000     C
    C   1.0     0.014671     0.156037     0.405312  Biso 1.000000     C
    C   1.0     0.020252     0.124383     0.324766  Biso 1.000000     C
    C   1.0     0.094140     0.096470     0.297921  Biso 1.000000     C
    C   1.0     0.162767     0.099160     0.352208  Biso 1.000000     C
    C   1.0     0.158126     0.129625     0.433124  Biso 1.000000     C
    C   1.0     0.084300     0.158525     0.458874  Biso 1.000000     C
    C   1.0     0.673874     0.319491     0.314367  Biso 1.000000     C
    C   1.0     0.651328     0.347875     0.231189  Biso 1.000000     C
    C   1.0     0.648990     0.292124     0.163283  Biso 1.000000     C
    C   1.0     0.625644     0.316317     0.085334  Biso 1.000000     C
    C   1.0     0.605812     0.397912     0.074664  Biso 1.000000     C
    C   1.0     0.608747     0.454405     0.141423  Biso 1.000000     C
    C   1.0     0.630504     0.429234     0.219317  Biso 1.000000     C
    C   1.0     0.432091     0.549598     0.188190  Biso 1.000000     C
    C   1.0     0.403133     0.466465     0.156853  Biso 1.000000     C
    C   1.0     0.383221     0.450996     0.073123  Biso 1.000000     C
    C   1.0     0.358373     0.372451     0.043910  Biso 1.000000     C
    C   1.0     0.351911     0.309203     0.098689  Biso 1.000000     C
    C   1.0     0.369564     0.323966     0.182775  Biso 1.000000     C
    C   1.0     0.395955     0.402220     0.211099  Biso 1.000000     C
    C   1.0     0.431901     0.934070     0.185229  Biso 1.000000     C
    C   1.0     0.403426     0.013786     0.156297  Biso 1.000000     C
    C   1.0     0.323059     0.020295     0.124087  Biso 1.000000     C
    C   1.0     0.296994     0.094603     0.096287  Biso 1.000000     C
    C   1.0     0.351856     0.162771     0.099638  Biso 1.000000     C
    C   1.0     0.432612     0.157203     0.130644  Biso 1.000000     C
    C   1.0     0.457579     0.082963     0.159397  Biso 1.000000     C
    C   1.0     0.313830     0.673449     0.322400  Biso 1.000000     C
    C   1.0     0.230560     0.650505     0.350291  Biso 1.000000     C
    C   1.0     0.162938     0.647488     0.293926  Biso 1.000000     C
    C   1.0     0.084977     0.623442     0.317467  Biso 1.000000     C
    C   1.0     0.073970     0.603626     0.399012  Biso 1.000000     C
    C   1.0     0.140381     0.607365     0.456128  Biso 1.000000     C
    C   1.0     0.218354     0.629780     0.431607  Biso 1.000000     C
    C   1.0     0.185667     0.431053     0.551752  Biso 1.000000     C
    C   1.0     0.154897     0.402494     0.468299  Biso 1.000000     C
    C   1.0     0.071272     0.382186     0.452199  Biso 1.000000     C
    C   1.0     0.042566     0.357501     0.373450  Biso 1.000000     C
    C   1.0     0.097782     0.351511     0.310689  Biso 1.000000     C
    C   1.0     0.181774     0.369666     0.326032  Biso 1.000000     C
    C   1.0     0.209568     0.395989     0.404480  Biso 1.000000     C
    C   1.0     0.185202     0.431590     0.936109  Biso 1.000000     C
    C   1.0     0.156109     0.403051     0.015598  Biso 1.000000     C
    C   1.0     0.123903     0.322726     0.021984  Biso 1.000000     C
    C   1.0     0.095976     0.296590     0.096176  Biso 1.000000     C
    C   1.0     0.099221     0.351373     0.164276  Biso 1.000000     C
    C   1.0     0.130175     0.432095     0.158780  Biso 1.000000     C
    C   1.0     0.159062     0.457129     0.084674  Biso 1.000000     C
    C   1.0     0.320947     0.313039     0.673963  Biso 1.000000     C
    C   1.0     0.348423     0.229759     0.650802  Biso 1.000000     C
    C   1.0     0.291751     0.162423     0.647775  Biso 1.000000     C
    C   1.0     0.314963     0.084425     0.623765  Biso 1.000000     C
    C   1.0     0.396461     0.073132     0.603976  Biso 1.000000     C
    C   1.0     0.453868     0.139255     0.607703  Biso 1.000000     C
    C   1.0     0.429693     0.217270     0.630113  Biso 1.000000     C
    C   1.0     0.814333     0.447729     0.568920  Biso 1.000000     C
    C   1.0     0.845117     0.531167     0.597445  Biso 1.000000     C
    C   1.0     0.928748     0.547261     0.617710  Biso 1.000000     C
    C   1.0     0.957420     0.626020     0.642366  Biso 1.000000     C
    C   1.0     0.902163     0.688772     0.648372  Biso 1.000000     C
    C   1.0     0.818164     0.673433     0.630246  Biso 1.000000     C
    C   1.0     0.790404     0.594975     0.603955  Biso 1.000000     C
    C   1.0     0.814870     0.063580     0.568385  Biso 1.000000     C
    C   1.0     0.843900     0.983988     0.596888  Biso 1.000000     C
    C   1.0     0.876178     0.977549     0.677197  Biso 1.000000     C
    C   1.0     0.904057     0.903313     0.703322  Biso 1.000000     C
    C   1.0     0.900704     0.835202     0.648547  Biso 1.000000     C
    C   1.0     0.869655     0.840734     0.567846  Biso 1.000000     C
    C   1.0     0.840820     0.914895     0.542824  Biso 1.000000     C
    C   1.0     0.678167     0.326039     0.686604  Biso 1.000000     C
    C   1.0     0.650878     0.349146     0.769959  Biso 1.000000     C
    C   1.0     0.707753     0.352100     0.837158  Biso 1.000000     C
    C   1.0     0.684799     0.376080     0.915244  Biso 1.000000     C
    C   1.0     0.603350     0.395922     0.926768  Biso 1.000000     C
    C   1.0     0.545743     0.392235     0.860791  Biso 1.000000     C
    C   1.0     0.569658     0.369854     0.782684  Biso 1.000000     C
    C   1.0     0.449815     0.567538     0.814574  Biso 1.000000     C
    C   1.0     0.533057     0.596953     0.845353  Biso 1.000000     C
    C   1.0     0.549116     0.617207     0.928900  Biso 1.000000     C
    C   1.0     0.627888     0.642205     0.957566  Biso 1.000000     C
    C   1.0     0.690675     0.648468     0.902373  Biso 1.000000     C
    C   1.0     0.675278     0.630592     0.818423  Biso 1.000000     C
    C   1.0     0.596840     0.604019     0.790665  Biso 1.000000     C
    C   1.0     0.064456     0.565563     0.814978  Biso 1.000000     C
    C   1.0     0.985121     0.594662     0.843962  Biso 1.000000     C
    C   1.0     0.979491     0.675206     0.875620  Biso 1.000000     C
    C   1.0     0.905591     0.702035     0.903515  Biso 1.000000     C
    C   1.0     0.837003     0.647729     0.900807  Biso 1.000000     C
    C   1.0     0.841704     0.566808     0.870360  Biso 1.000000     C
    C   1.0     0.915540     0.541076     0.841474  Biso 1.000000     C
    C   1.0     0.326118     0.685638     0.680504  Biso 1.000000     C
    C   1.0     0.348762     0.768787     0.652141  Biso 1.000000     C
    C   1.0     0.351100     0.836714     0.707864  Biso 1.000000     C
    C   1.0     0.374470     0.914634     0.683653  Biso 1.000000     C
    C   1.0     0.394327     0.925250     0.602071  Biso 1.000000     C
    C   1.0     0.391461     0.858462     0.545624  Biso 1.000000     C
    C   1.0     0.369658     0.780598     0.570810  Biso 1.000000     C
    C   1.0     0.569214     0.812124     0.450588  Biso 1.000000     C
    C   1.0     0.597660     0.843368     0.533927  Biso 1.000000     C
    C   1.0     0.617531     0.927085     0.549505  Biso 1.000000     C
    C   1.0     0.642022     0.956260     0.628154  Biso 1.000000     C
    C   1.0     0.648249     0.901429     0.691374  Biso 1.000000     C
    C   1.0     0.630609     0.817360     0.676528  Biso 1.000000     C
    C   1.0     0.604482     0.789088     0.598171  Biso 1.000000     C
    C   1.0     0.567607     0.813921     0.065873  Biso 1.000000     C
    C   1.0     0.595970     0.843223     0.986350  Biso 1.000000     C
    C   1.0     0.676341     0.875493     0.980158  Biso 1.000000     C
    C   1.0     0.702570     0.903521     0.906041  Biso 1.000000     C
    C   1.0     0.647859     0.900359     0.837741  Biso 1.000000     C
    C   1.0     0.567061     0.869403     0.843019  Biso 1.000000     C
    C   1.0     0.541927     0.840380     0.917077  Biso 1.000000     C
    C   1.0     0.686189     0.677631     0.326242  Biso 1.000000     C
    C   1.0     0.769444     0.649746     0.349313  Biso 1.000000     C
    C   1.0     0.837061     0.706082     0.352328  Biso 1.000000     C
    C   1.0     0.915018     0.682525     0.376456  Biso 1.000000     C
    C   1.0     0.926036     0.600986     0.396336  Biso 1.000000     C
    C   1.0     0.859621     0.543901     0.392615  Biso 1.000000     C
    C   1.0     0.781649     0.568443     0.370139  Biso 1.000000     C
    C   1.0     0.688534    -0.000473     0.312125  Biso 1.000000     C
    C   1.0     0.311274     0.687023     0.000654  Biso 1.000000     C
    C   1.0    -0.000189     0.309927     0.690037  Biso 1.000000     C
    O   1.0     0.555856     0.260736     0.458753  Biso 1.000000     O
    O   1.0     0.608124     0.135431     0.430323  Biso 1.000000     O
    O   1.0     0.232940     0.065829     0.322952  Biso 1.000000     O
    O   1.0     0.937199     0.218693     0.506695  Biso 1.000000     O
    O   1.0     0.872673     0.173987     0.384825  Biso 1.000000     O
    O   1.0     0.666690     0.371673     0.375100  Biso 1.000000     O
    O   1.0     0.697717     0.246647     0.319408  Biso 1.000000     O
    O   1.0     0.735827     0.062066     0.312158  Biso 1.000000     O
    O   1.0     0.458237     0.555351     0.263915  Biso 1.000000     O
    O   1.0     0.430290     0.607939     0.138581  Biso 1.000000     O
    O   1.0     0.323374     0.233403     0.066331  Biso 1.000000     O
    O   1.0     0.503989     0.935152     0.219324  Biso 1.000000     O
    O   1.0     0.381868     0.871748     0.173550  Biso 1.000000     O
    O   1.0     0.374568     0.666481     0.374874  Biso 1.000000     O
    O   1.0     0.318969     0.697244     0.249545  Biso 1.000000     O
    O   1.0     0.310616     0.733311     0.063713  Biso 1.000000     O
    O   1.0     0.261030     0.458331     0.557992  Biso 1.000000     O
    O   1.0     0.135801     0.427697     0.609731  Biso 1.000000     O
    O   1.0     0.065885     0.322846     0.234784  Biso 1.000000     O
    O   1.0     0.219203     0.503713     0.937423  Biso 1.000000     O
    O   1.0     0.173936     0.381641     0.873831  Biso 1.000000     O
    O   1.0     0.373654     0.373574     0.666876  Biso 1.000000     O
    O   1.0     0.248306     0.318442     0.698114  Biso 1.000000     O
    O   1.0     0.062913     0.309112     0.736501  Biso 1.000000     O
    O   1.0     0.738973     0.441529     0.541665  Biso 1.000000     O
    O   1.0     0.864181     0.389699     0.572387  Biso 1.000000     O
    O   1.0     0.934027     0.764662     0.677087  Biso 1.000000     O
    O   1.0     0.780873     0.062417     0.496262  Biso 1.000000     O
    O   1.0     0.826168     0.125799     0.618417  Biso 1.000000     O
    O   1.0     0.625394     0.333307     0.626095  Biso 1.000000     O
    O   1.0     0.750753     0.301815     0.681062  Biso 1.000000     O
    O   1.0     0.936808     0.263335     0.690919  Biso 1.000000     O
    O   1.0     0.443907     0.540843     0.739087  Biso 1.000000     O
    O   1.0     0.391711     0.569518     0.864357  Biso 1.000000     O
    O   1.0     0.766798     0.676971     0.934086  Biso 1.000000     O
    O   1.0     0.062643     0.493322     0.781284  Biso 1.000000     O
    O   1.0     0.127078     0.615222     0.826040  Biso 1.000000     O
    O   1.0     0.333258     0.624904     0.628316  Biso 1.000000     O
    O   1.0     0.302260     0.680629     0.753331  Biso 1.000000     O
    O   1.0     0.264075     0.687584     0.938076  Biso 1.000000     O
    O   1.0     0.542083     0.736710     0.444769  Biso 1.000000     O
    O   1.0     0.572590     0.861672     0.392283  Biso 1.000000     O
    O   1.0     0.676574     0.933732     0.767269  Biso 1.000000     O
    O   1.0     0.495728     0.779318     0.064723  Biso 1.000000     O
    O   1.0     0.617669     0.825632     0.128180  Biso 1.000000     O
    O   1.0     0.625431     0.625236     0.333436  Biso 1.000000     O
    O   1.0     0.680979     0.750340     0.302092  Biso 1.000000     O
    O   1.0     0.688096     0.937505     0.264269  Biso 1.000000     O
    O   1.0     0.751494     0.246505     0.501459  Biso 1.000000     O
    O   1.0     0.499105     0.752239     0.249906  Biso 1.000000     O
    O   1.0     0.247722     0.498979     0.752931  Biso 1.000000     O
    O   1.0     0.576653     0.426020     0.000776  Biso 1.000000     O
    O   1.0     0.000016     0.573670     0.426306  Biso 1.000000     O
    O   1.0     0.423396    -0.000836     0.573956  Biso 1.000000     O
   In   1.0     0.742133     0.156014     0.410647  Biso 1.000000    In
   In   1.0     0.409307     0.741569     0.158058  Biso 1.000000    In
   In   1.0     0.156707     0.408264     0.743362  Biso 1.000000    In
   In   1.0     0.842965     0.256265     0.591745  Biso 1.000000    In
   In   1.0     0.257691     0.589380     0.843824  Biso 1.000000    In
   In   1.0     0.590608     0.842223     0.258231  Biso 1.000000    In
   In   1.0     0.665848     0.332252     0.500842  Biso 1.000000    In
   In   1.0     0.500070     0.665545     0.334781  Biso 1.000000    In
   In   1.0     0.333741     0.499089     0.667585  Biso 1.000000    In
