#======================================================================

# CRYSTAL DATA

#----------------------------------------------------------------------

data_VESTA_phase_1


_pd_phase_name                         MOF
_cell_length_a                         14.06500
_cell_length_b                         13.44900
_cell_length_c                         18.32800
_cell_angle_alpha                      89.93700
_cell_angle_beta                       90.19700
_cell_angle_gamma                      85.44500
_symmetry_space_group_name_H-M         "P 1"
_symmetry_Int_Tables_number            1

loop_
_symmetry_equiv_pos_as_xyz
   "x, y, z"

loop_
   _atom_site_label
   _atom_site_occupancy
   _atom_site_fract_x
   _atom_site_fract_y
   _atom_site_fract_z
   _atom_site_adp_type
   _atom_site_B_iso_or_equiv
   _atom_site_type_symbol
    H   1.0     0.081576    -0.011924     0.265970  Biso 1.000000     H
    H   1.0     0.576540    -0.011866     0.265314  Biso 1.000000     H
    H   1.0     0.130958     0.196236     0.094105  Biso 1.000000     H
    H   1.0     0.640488     0.190409     0.093188  Biso 1.000000     H
    H   1.0     0.168494     0.279804     0.318745  Biso 1.000000     H
    H   1.0     0.669054     0.277539     0.318205  Biso 1.000000     H
    H   1.0     0.230152     0.304203     0.082879  Biso 1.000000     H
    H   1.0     0.740392     0.305988     0.083163  Biso 1.000000     H
    H   1.0     0.117667     0.375809     0.087903  Biso 1.000000     H
    H   1.0     0.622013     0.365240     0.086975  Biso 1.000000     H
    H   1.0     0.373175     0.375534     0.071667  Biso 1.000000     H
    H   1.0     0.874055     0.399996     0.074485  Biso 1.000000     H
    H   1.0     0.460112     0.527173     0.050633  Biso 1.000000     H
    H   1.0     0.938139     0.565439     0.053197  Biso 1.000000     H
    H   1.0     0.208669     0.713399     0.105568  Biso 1.000000     H
    H   1.0     0.665134     0.711948     0.108394  Biso 1.000000     H
    H   1.0     0.121821     0.562078     0.130358  Biso 1.000000     H
    H   1.0     0.602000     0.548518     0.131927  Biso 1.000000     H
    H   1.0     0.178989     0.000000     0.766181  Biso 1.000000     H
    H   1.0     0.681356     0.000000     0.765087  Biso 1.000000     H
    H   1.0     0.127481     0.798237     0.593855  Biso 1.000000     H
    H   1.0     0.626221     0.800114     0.594433  Biso 1.000000     H
    H   1.0     0.090786     0.713084     0.818086  Biso 1.000000     H
    H   1.0     0.588385     0.719149     0.819452  Biso 1.000000     H
    H   1.0     0.026990     0.691958     0.582702  Biso 1.000000     H
    H   1.0     0.525179     0.694291     0.583589  Biso 1.000000     H
    H   1.0     0.137226     0.616140     0.587376  Biso 1.000000     H
    H   1.0     0.635900     0.619552     0.589883  Biso 1.000000     H
    H   1.0     0.377957     0.627603     0.578371  Biso 1.000000     H
    H   1.0     0.878909     0.626892     0.579036  Biso 1.000000     H
    H   1.0     0.286242     0.478556     0.556888  Biso 1.000000     H
    H   1.0     0.785081     0.479158     0.558497  Biso 1.000000     H
    H   1.0     0.036681     0.283898     0.597818  Biso 1.000000     H
    H   1.0     0.538561     0.286171     0.600454  Biso 1.000000     H
    H   1.0     0.129775     0.429533     0.621419  Biso 1.000000     H
    H   1.0     0.629488     0.433143     0.624726  Biso 1.000000     H
    H   1.0     0.434335     0.000000     0.731733  Biso 1.000000     H
    H   1.0     0.930342     0.000000     0.731533  Biso 1.000000     H
    H   1.0     0.363967     0.814157     0.906233  Biso 1.000000     H
    H   1.0     0.872760     0.808159     0.905411  Biso 1.000000     H
    H   1.0     0.343530     0.718603     0.682848  Biso 1.000000     H
    H   1.0     0.844748     0.717014     0.681847  Biso 1.000000     H
    H   1.0     0.266498     0.696851     0.917044  Biso 1.000000     H
    H   1.0     0.773229     0.699408     0.915927  Biso 1.000000     H
    H   1.0     0.384341     0.636205     0.914684  Biso 1.000000     H
    H   1.0     0.886142     0.628332     0.914559  Biso 1.000000     H
    H   1.0     0.132463     0.604941     0.927699  Biso 1.000000     H
    H   1.0     0.632243     0.626842     0.930361  Biso 1.000000     H
    H   1.0     0.065369     0.440874     0.948222  Biso 1.000000     H
    H   1.0     0.545793     0.474932     0.951413  Biso 1.000000     H
    H   1.0     0.335400     0.289703     0.890685  Biso 1.000000     H
    H   1.0     0.796275     0.289526     0.892943  Biso 1.000000     H
    H   1.0     0.401689     0.451953     0.868218  Biso 1.000000     H
    H   1.0     0.882797     0.441100     0.868566  Biso 1.000000     H
    H   1.0     0.326191    -0.015720     0.231179  Biso 1.000000     H
    H   1.0     0.828138    -0.011855     0.229886  Biso 1.000000     H
    H   1.0     0.393986     0.182301     0.405211  Biso 1.000000     H
    H   1.0     0.893708     0.182765     0.406614  Biso 1.000000     H
    H   1.0     0.415218     0.276123     0.181114  Biso 1.000000     H
    H   1.0     0.915455     0.281924     0.183881  Biso 1.000000     H
    H   1.0     0.494464     0.298276     0.415631  Biso 1.000000     H
    H   1.0     0.993343     0.299437     0.418893  Biso 1.000000     H
    H   1.0     0.375646     0.356437     0.414380  Biso 1.000000     H
    H   1.0     0.874547     0.357746     0.417071  Biso 1.000000     H
    H   1.0     0.124898     0.395510     0.432461  Biso 1.000000     H
    H   1.0     0.624349     0.394337     0.432780  Biso 1.000000     H
    H   1.0     0.188299     0.561580     0.450780  Biso 1.000000     H
    H   1.0     0.687204     0.560079     0.452972  Biso 1.000000     H
    H   1.0     0.418068     0.705395     0.385684  Biso 1.000000     H
    H   1.0     0.916565     0.706351     0.389285  Biso 1.000000     H
    H   1.0     0.355810     0.540242     0.362404  Biso 1.000000     H
    H   1.0     0.853537     0.540927     0.368052  Biso 1.000000     H
    C   1.0     0.123229     0.132177     0.300510  Biso 1.000000     C
    C   1.0     0.622489     0.130422     0.299987  Biso 1.000000     C
    C   1.0     0.101406     0.060831     0.248572  Biso 1.000000     C
    C   1.0     0.599390     0.059723     0.248013  Biso 1.000000     C
    C   1.0     0.105675     0.084325     0.174427  Biso 1.000000     C
    C   1.0     0.606044     0.082309     0.173890  Biso 1.000000     C
    C   1.0     0.130112     0.179114     0.151983  Biso 1.000000     C
    C   1.0     0.634962     0.175282     0.151233  Biso 1.000000     C
    C   1.0     0.153649     0.249204     0.204008  Biso 1.000000     C
    C   1.0     0.657066     0.245788     0.203485  Biso 1.000000     C
    C   1.0     0.150015     0.225223     0.278430  Biso 1.000000     C
    C   1.0     0.650914     0.222797     0.277905  Biso 1.000000     C
    C   1.0     0.118726     0.107865     0.380424  Biso 1.000000     C
    C   1.0     0.617090     0.106340     0.379779  Biso 1.000000     C
    C   1.0     0.082771     0.009388     0.119240  Biso 1.000000     C
    C   1.0     0.578751     0.008645     0.118980  Biso 1.000000     C
    C   1.0     0.391100     0.718535     0.056135  Biso 1.000000     C
    C   1.0     0.840144     0.747410     0.056807  Biso 1.000000     C
    C   1.0     0.339519     0.629370     0.075902  Biso 1.000000     C
    C   1.0     0.805486     0.649108     0.078573  Biso 1.000000     C
    C   1.0     0.190067     0.366017     0.111427  Biso 1.000000     C
    C   1.0     0.693894     0.363220     0.111419  Biso 1.000000     C
    C   1.0     0.241985     0.458663     0.102910  Biso 1.000000     C
    C   1.0     0.733914     0.463056     0.104509  Biso 1.000000     C
    C   1.0     0.337554     0.449451     0.080986  Biso 1.000000     C
    C   1.0     0.828956     0.468727     0.083301  Biso 1.000000     C
    C   1.0     0.386133     0.533898     0.068344  Biso 1.000000     C
    C   1.0     0.864802     0.560813     0.070936  Biso 1.000000     C
    C   1.0     0.244177     0.638954     0.099011  Biso 1.000000     C
    C   1.0     0.711218     0.643687     0.102124  Biso 1.000000     C
    C   1.0     0.196147     0.554215     0.112875  Biso 1.000000     C
    C   1.0     0.676071     0.551551     0.115308  Biso 1.000000     C
    C   1.0     0.136343     0.860826     0.800445  Biso 1.000000     C
    C   1.0     0.636827     0.865350     0.800479  Biso 1.000000     C
    C   1.0     0.158479     0.932339     0.748657  Biso 1.000000     C
    C   1.0     0.659782     0.935648     0.748196  Biso 1.000000     C
    C   1.0     0.154000     0.909337     0.674460  Biso 1.000000     C
    C   1.0     0.654323     0.911697     0.674212  Biso 1.000000     C
    C   1.0     0.128476     0.815074     0.651770  Biso 1.000000     C
    C   1.0     0.627617     0.817587     0.652232  Biso 1.000000     C
    C   1.0     0.104854     0.744736     0.703623  Biso 1.000000     C
    C   1.0     0.602970     0.748478     0.704638  Biso 1.000000     C
    C   1.0     0.109209     0.768047     0.778091  Biso 1.000000     C
    C   1.0     0.607798     0.772942     0.778901  Biso 1.000000     C
    C   1.0     0.140361     0.885085     0.880261  Biso 1.000000     C
    C   1.0     0.643448     0.889098     0.880277  Biso 1.000000     C
    C   1.0     0.178774     0.984255     0.619519  Biso 1.000000     C
    C   1.0     0.678974     0.985855     0.618896  Biso 1.000000     C
    C   1.0     0.352014     0.286007     0.558508  Biso 1.000000     C
    C   1.0     0.849505     0.286163     0.557655  Biso 1.000000     C
    C   1.0     0.406609     0.373334     0.577254  Biso 1.000000     C
    C   1.0     0.905012     0.372625     0.576801  Biso 1.000000     C
    C   1.0     0.065408     0.628720     0.611125  Biso 1.000000     C
    C   1.0     0.563557     0.631720     0.612794  Biso 1.000000     C
    C   1.0     0.509177     0.540637     0.604309  Biso 1.000000     C
    C   1.0     0.000000     0.538378     0.602976  Biso 1.000000     C
    C   1.0     0.412373     0.552534     0.585072  Biso 1.000000     C
    C   1.0     0.912718     0.551476     0.585196  Biso 1.000000     C
    C   1.0     0.361252     0.469871     0.572380  Biso 1.000000     C
    C   1.0     0.860398     0.469555     0.572989  Biso 1.000000     C
    C   1.0     0.503305     0.361085     0.596973  Biso 1.000000     C
    C   1.0     0.000000     0.359176     0.595207  Biso 1.000000     C
    C   1.0     0.053906     0.441392     0.608743  Biso 1.000000     C
    C   1.0     0.553906     0.444079     0.610905  Biso 1.000000     C
    C   1.0     0.389750     0.866463     0.698835  Biso 1.000000     C
    C   1.0     0.889958     0.865185     0.698365  Biso 1.000000     C
    C   1.0     0.410887     0.939234     0.749837  Biso 1.000000     C
    C   1.0     0.909679     0.938299     0.749541  Biso 1.000000     C
    C   1.0     0.401128     0.919441     0.824241  Biso 1.000000     C
    C   1.0     0.901881     0.917216     0.823928  Biso 1.000000     C
    C   1.0     0.371632     0.827189     0.848060  Biso 1.000000     C
    C   1.0     0.876353     0.823257     0.847331  Biso 1.000000     C
    C   1.0     0.351641     0.754607     0.796751  Biso 1.000000     C
    C   1.0     0.855075     0.751360     0.795976  Biso 1.000000     C
    C   1.0     0.360316     0.775039     0.722185  Biso 1.000000     C
    C   1.0     0.861838     0.773034     0.721420  Biso 1.000000     C
    C   1.0     0.398145     0.886135     0.618727  Biso 1.000000     C
    C   1.0     0.897876     0.885665     0.618241  Biso 1.000000     C
    C   1.0     0.426205     0.995214     0.878406  Biso 1.000000     C
    C   1.0     0.922527     0.993810     0.878533  Biso 1.000000     C
    C   1.0     0.159503     0.257109     0.942099  Biso 1.000000     C
    C   1.0     0.614600     0.283489     0.943783  Biso 1.000000     C
    C   1.0     0.196373     0.354909     0.921690  Biso 1.000000     C
    C   1.0     0.665980     0.373055     0.924563  Biso 1.000000     C
    C   1.0     0.312827     0.638752     0.889558  Biso 1.000000     C
    C   1.0     0.814788     0.637034     0.889148  Biso 1.000000     C
    C   1.0     0.271365     0.539605     0.896650  Biso 1.000000     C
    C   1.0     0.763064     0.544206     0.897662  Biso 1.000000     C
    C   1.0     0.176310     0.535537     0.918331  Biso 1.000000     C
    C   1.0     0.667846     0.553068     0.920454  Biso 1.000000     C
    C   1.0     0.138789     0.444197     0.930294  Biso 1.000000     C
    C   1.0     0.619533     0.468430     0.933130  Biso 1.000000     C
    C   1.0     0.290754     0.358776     0.897901  Biso 1.000000     C
    C   1.0     0.760950     0.363862     0.900527  Biso 1.000000     C
    C   1.0     0.327631     0.450208     0.885224  Biso 1.000000     C
    C   1.0     0.808798     0.448771     0.886826  Biso 1.000000     C
    C   1.0     0.369345     0.128331     0.197816  Biso 1.000000     C
    C   1.0     0.870754     0.133307     0.198557  Biso 1.000000     C
    C   1.0     0.348907     0.055674     0.249117  Biso 1.000000     C
    C   1.0     0.850259     0.059287     0.248856  Biso 1.000000     C
    C   1.0     0.358512     0.076034     0.323474  Biso 1.000000     C
    C   1.0     0.858848     0.078031     0.323498  Biso 1.000000     C
    C   1.0     0.387016     0.168804     0.347028  Biso 1.000000     C
    C   1.0     0.886959     0.170389     0.348260  Biso 1.000000     C
    C   1.0     0.407055     0.241001     0.295501  Biso 1.000000     C
    C   1.0     0.907072     0.243703     0.297631  Biso 1.000000     C
    C   1.0     0.398578     0.220062     0.220871  Biso 1.000000     C
    C   1.0     0.898964     0.224750     0.222779  Biso 1.000000     C
    C   1.0     0.359625     0.108223     0.117612  Biso 1.000000     C
    C   1.0     0.864269     0.113415     0.118299  Biso 1.000000     C
    C   1.0     0.335438     0.000366     0.378059  Biso 1.000000     C
    C   1.0     0.835490     0.001074     0.377148  Biso 1.000000     C
    C   1.0     0.090367     0.742801     0.443565  Biso 1.000000     C
    C   1.0     0.590285     0.741920     0.443383  Biso 1.000000     C
    C   1.0     0.055782     0.644090     0.422924  Biso 1.000000     C
    C   1.0     0.556048     0.643086     0.422259  Biso 1.000000     C
    C   1.0     0.446539     0.355888     0.388758  Biso 1.000000     C
    C   1.0     0.945706     0.357231     0.391942  Biso 1.000000     C
    C   1.0    -0.015027     0.457289     0.399432  Biso 1.000000     C
    C   1.0     0.485819     0.456098     0.396455  Biso 1.000000     C
    C   1.0     0.079650     0.463641     0.421577  Biso 1.000000     C
    C   1.0     0.579565     0.462475     0.420949  Biso 1.000000     C
    C   1.0     0.115120     0.556248     0.432578  Biso 1.000000     C
    C   1.0     0.614728     0.555040     0.433060  Biso 1.000000     C
    C   1.0    -0.038244     0.637880     0.398405  Biso 1.000000     C
    C   1.0     0.462927     0.636909     0.395640  Biso 1.000000     C
    C   1.0     0.428500     0.544374     0.382524  Biso 1.000000     C
    C   1.0     0.926947     0.545311     0.386456  Biso 1.000000     C
    O   1.0     0.078782     0.028679     0.396367  Biso 1.000000     O
    O   1.0     0.579025     0.026002     0.395667  Biso 1.000000     O
    O   1.0     0.154446     0.166680     0.425537  Biso 1.000000     O
    O   1.0     0.650542     0.166450     0.425194  Biso 1.000000     O
    O   1.0     0.091224     0.029744     0.049134  Biso 1.000000     O
    O   1.0     0.596302     0.023837     0.049243  Biso 1.000000     O
    O   1.0     0.054219     0.926214     0.137500  Biso 1.000000     O
    O   1.0     0.537481     0.932954     0.137613  Biso 1.000000     O
    O   1.0     0.182891     0.341160     0.188069  Biso 1.000000     O
    O   1.0     0.687262     0.337390     0.187896  Biso 1.000000     O
    O   1.0     0.346102     0.803539     0.046944  Biso 1.000000     O
    O   1.0     0.779620     0.822249     0.053219  Biso 1.000000     O
    O   1.0    -0.070550     0.746000     0.040652  Biso 1.000000     O
    O   1.0     0.482119     0.704783     0.046964  Biso 1.000000     O
    O   1.0     0.175178     0.966637     0.896914  Biso 1.000000     O
    O   1.0     0.691221     0.963240     0.896715  Biso 1.000000     O
    O   1.0     0.107690     0.823430     0.925377  Biso 1.000000     O
    O   1.0     0.603357     0.833892     0.925376  Biso 1.000000     O
    O   1.0     0.166144     0.966497     0.549398  Biso 1.000000     O
    O   1.0     0.666314     0.967322     0.548815  Biso 1.000000     O
    O   1.0     0.212753     0.064092     0.638490  Biso 1.000000     O
    O   1.0     0.712579     0.066086     0.637416  Biso 1.000000     O
    O   1.0     0.074833     0.653198     0.687692  Biso 1.000000     O
    O   1.0     0.571342     0.657350     0.689309  Biso 1.000000     O
    O   1.0     0.395946     0.200420     0.546803  Biso 1.000000     O
    O   1.0     0.893065     0.200784     0.544292  Biso 1.000000     O
    O   1.0     0.260915     0.299696     0.552828  Biso 1.000000     O
    O   1.0     0.758418     0.300193     0.552978  Biso 1.000000     O
    O   1.0     0.441113     0.962368     0.600061  Biso 1.000000     O
    O   1.0     0.941002     0.962034     0.600060  Biso 1.000000     O
    O   1.0     0.362160     0.825106     0.574788  Biso 1.000000     O
    O   1.0     0.861689     0.825197     0.574082  Biso 1.000000     O
    O   1.0     0.407571     0.981594     0.948245  Biso 1.000000     O
    O   1.0     0.912703     0.974729     0.948803  Biso 1.000000     O
    O   1.0     0.466802     0.071061     0.859316  Biso 1.000000     O
    O   1.0     0.950481     0.076944     0.859826  Biso 1.000000     O
    O   1.0     0.321220     0.663321     0.812982  Biso 1.000000     O
    O   1.0     0.825357     0.659831     0.812438  Biso 1.000000     O
    O   1.0     0.217755     0.180279     0.943389  Biso 1.000000     O
    O   1.0     0.658840     0.197749     0.949714  Biso 1.000000     O
    O   1.0     0.524026     0.297935     0.955695  Biso 1.000000     O
    O   1.0     0.000000     0.260449     0.959239  Biso 1.000000     O
    O   1.0     0.312613     0.033806     0.100307  Biso 1.000000     O
    O   1.0     0.829072     0.032699     0.100011  Biso 1.000000     O
    O   1.0     0.396653     0.166250     0.072719  Biso 1.000000     O
    O   1.0     0.895790     0.177304     0.074386  Biso 1.000000     O
    O   1.0     0.350460     0.017022     0.447987  Biso 1.000000     O
    O   1.0     0.850052     0.016697     0.447286  Biso 1.000000     O
    O   1.0     0.299931     0.920806     0.359347  Biso 1.000000     O
    O   1.0     0.800141     0.921886     0.357544  Biso 1.000000     O
    O   1.0     0.437096     0.332489     0.312034  Biso 1.000000     O
    O   1.0     0.937113     0.334659     0.315106  Biso 1.000000     O
    O   1.0     0.029209     0.817240     0.446687  Biso 1.000000     O
    O   1.0     0.528937     0.816170     0.446719  Biso 1.000000     O
    O   1.0     0.179694     0.742022     0.459448  Biso 1.000000     O
    O   1.0     0.679633     0.741632     0.459274  Biso 1.000000     O
   Cd   1.0     0.272081     0.862889     0.475965  Biso 1.000000    Cd
   Cd   1.0     0.771294     0.863529     0.474868  Biso 1.000000    Cd
   Cd   1.0     0.496893     0.137979     0.974472  Biso 1.000000    Cd
   Cd   1.0     0.983079     0.135936     0.975811  Biso 1.000000    Cd
   Cd   1.0     0.246610     0.134159     0.526033  Biso 1.000000    Cd
   Cd   1.0     0.744076     0.134907     0.524448  Biso 1.000000    Cd
   Cd   1.0     0.019026     0.868355     0.022474  Biso 1.000000    Cd
   Cd   1.0     0.505522     0.865588     0.023845  Biso 1.000000    Cd
   Cd   1.0     0.010985    -0.025888     0.493932  Biso 1.000000    Cd
   Cd   1.0     0.511134    -0.026710     0.493867  Biso 1.000000    Cd
   Cd   1.0     0.248932     0.024987    -0.008062  Biso 1.000000    Cd
   Cd   1.0     0.753516    -0.021562     0.004794  Biso 1.000000    Cd
