#======================================================================

# CRYSTAL DATA

#----------------------------------------------------------------------

data_VESTA_phase_1


_pd_phase_name                         MOF
_cell_length_a                         14.80500
_cell_length_b                         14.80600
_cell_length_c                         14.80500
_cell_angle_alpha                      109.41200
_cell_angle_beta                       109.34800
_cell_angle_gamma                      109.35600
_symmetry_space_group_name_H-M         "P 1"
_symmetry_Int_Tables_number            1

loop_
_symmetry_equiv_pos_as_xyz
   "x, y, z"

loop_
   _atom_site_label
   _atom_site_occupancy
   _atom_site_fract_x
   _atom_site_fract_y
   _atom_site_fract_z
   _atom_site_adp_type
   _atom_site_B_iso_or_equiv
   _atom_site_type_symbol
    H   1.0     0.528346    -0.001392     0.628353  Biso 1.000000     H
    H   1.0     0.657090     0.418122     0.533067  Biso 1.000000     H
    H   1.0    -0.001188     0.528519     0.628463  Biso 1.000000     H
    H   1.0     0.628570    -0.000986     0.528542  Biso 1.000000     H
    H   1.0     0.549080     0.761950     0.071681  Biso 1.000000     H
    H   1.0     0.370647     0.370870     0.901235  Biso 1.000000     H
    H   1.0     0.211562     0.523765     0.449990  Biso 1.000000     H
    H   1.0     0.875896     0.760970     0.341187  Biso 1.000000     H
    H   1.0     0.417975     0.532846     0.656905  Biso 1.000000     H
    H   1.0     0.071773     0.549208     0.762029  Biso 1.000000     H
    H   1.0     0.523966     0.450093     0.211683  Biso 1.000000     H
    H   1.0     0.528362     0.628337    -0.001427  Biso 1.000000     H
    H   1.0     0.467703     0.123917     0.887254  Biso 1.000000     H
    H   1.0     0.887361     0.467688     0.123886  Biso 1.000000     H
    H   1.0     0.688120     0.924853     0.475204  Biso 1.000000     H
    H   1.0     0.237446     0.311330     0.788834  Biso 1.000000     H
    H   1.0     0.533034     0.657080     0.418009  Biso 1.000000     H
    H   1.0     0.211566     0.449999     0.523748  Biso 1.000000     H
    H   1.0     0.760873     0.341063     0.875878  Biso 1.000000     H
    H   1.0     0.533024     0.417982     0.657052  Biso 1.000000     H
    H   1.0     0.475092     0.924680     0.688037  Biso 1.000000     H
    H   1.0     0.123926     0.467854     0.887366  Biso 1.000000     H
    H   1.0     0.116325     0.239046     0.582990  Biso 1.000000     H
    H   1.0     0.887344     0.123885     0.467652  Biso 1.000000     H
    H   1.0     0.762090     0.071893     0.549118  Biso 1.000000     H
    H   1.0     0.628555     0.528546    -0.000986  Biso 1.000000     H
    H   1.0     0.475098     0.688012     0.924648  Biso 1.000000     H
    H   1.0     0.583179     0.239077     0.116326  Biso 1.000000     H
    H   1.0     0.901310     0.370757     0.370722  Biso 1.000000     H
    H   1.0     0.924789     0.688109     0.475295  Biso 1.000000     H
    H   1.0     0.523968     0.211662     0.450077  Biso 1.000000     H
    H   1.0     0.311235     0.237564     0.788883  Biso 1.000000     H
    H   1.0     0.467739     0.887233     0.123900  Biso 1.000000     H
    H   1.0     0.237473     0.788843     0.311337  Biso 1.000000     H
    H   1.0     0.688096     0.475205     0.924837  Biso 1.000000     H
    H   1.0     0.239154     0.116402     0.583135  Biso 1.000000     H
    H   1.0     0.123911     0.887331     0.467856  Biso 1.000000     H
    H   1.0     0.471425     0.471213     0.099038  Biso 1.000000     H
    H   1.0     0.116342     0.583011     0.239059  Biso 1.000000     H
    H   1.0    -0.001224     0.628464     0.528531  Biso 1.000000     H
    H   1.0     0.071756     0.762030     0.549221  Biso 1.000000     H
    H   1.0     0.760907     0.875879     0.341056  Biso 1.000000     H
    H   1.0     0.370684     0.901228     0.370871  Biso 1.000000     H
    H   1.0     0.583191     0.116303     0.239054  Biso 1.000000     H
    H   1.0     0.924802     0.475288     0.688105  Biso 1.000000     H
    H   1.0     0.341065     0.875899     0.761011  Biso 1.000000     H
    H   1.0     0.239187     0.583145     0.116438  Biso 1.000000     H
    H   1.0     0.341074     0.760982     0.875917  Biso 1.000000     H
    H   1.0     0.549068     0.071720     0.761970  Biso 1.000000     H
    H   1.0     0.450143     0.211621     0.523839  Biso 1.000000     H
    H   1.0     0.417978     0.656946     0.532884  Biso 1.000000     H
    H   1.0     0.471407     0.099021     0.471202  Biso 1.000000     H
    H   1.0     0.450149     0.523852     0.211637  Biso 1.000000     H
    H   1.0     0.657080     0.533041     0.418149  Biso 1.000000     H
    H   1.0     0.788970     0.237502     0.311224  Biso 1.000000     H
    H   1.0     0.098977     0.471228     0.471234  Biso 1.000000     H
    H   1.0     0.311275     0.788886     0.237563  Biso 1.000000     H
    H   1.0     0.788965     0.311257     0.237474  Biso 1.000000     H
    H   1.0     0.875875     0.341180     0.760962  Biso 1.000000     H
    H   1.0     0.762072     0.549121     0.071875  Biso 1.000000     H
    C   1.0     0.057843     0.584289     0.267530  Biso 1.000000     C
    C   1.0     0.416421     0.684330     0.473228  Biso 1.000000     C
    C   1.0     0.210634     0.527381     0.944645  Biso 1.000000     C
    C   1.0     0.384429    -0.000299     0.631073  Biso 1.000000     C
    C   1.0     0.680296     0.489585    -0.001174  Biso 1.000000     C
    C   1.0     0.944642     0.210608     0.527235  Biso 1.000000     C
    C   1.0     0.368921     0.368964     0.754785  Biso 1.000000     C
    C   1.0     0.489481    -0.001376     0.680197  Biso 1.000000     C
    C   1.0     0.684438     0.416519     0.473352  Biso 1.000000     C
    C   1.0    -0.001292     0.680246     0.489645  Biso 1.000000     C
    C   1.0     0.314193     0.732315     0.789145  Biso 1.000000     C
    C   1.0     0.489494     0.680170    -0.001407  Biso 1.000000     C
    C   1.0     0.319254     0.810881     0.319349  Biso 1.000000     C
    C   1.0     0.509915     0.189416     0.509801  Biso 1.000000     C
    C   1.0     0.057832     0.267520     0.584266  Biso 1.000000     C
    C   1.0     0.810993     0.319296     0.319269  Biso 1.000000     C
    C   1.0     0.789124     0.314275     0.732306  Biso 1.000000     C
    C   1.0    -0.000259     0.631120     0.384506  Biso 1.000000     C
    C   1.0     0.267569     0.057868     0.584384  Biso 1.000000     C
    C   1.0     0.631131    -0.000207     0.384471  Biso 1.000000     C
    C   1.0     0.473307     0.684397     0.416434  Biso 1.000000     C
    C   1.0     0.944653     0.527265     0.210613  Biso 1.000000     C
    C   1.0     0.314189     0.789129     0.732336  Biso 1.000000     C
    C   1.0     0.509924     0.509814     0.189435  Biso 1.000000     C
    C   1.0     0.527331     0.944577     0.210609  Biso 1.000000     C
    C   1.0     0.754882     0.368976     0.368968  Biso 1.000000     C
    C   1.0     0.416405     0.473191     0.684290  Biso 1.000000     C
    C   1.0     0.680318    -0.001164     0.489582  Biso 1.000000     C
    C   1.0     0.631124     0.384476    -0.000209  Biso 1.000000     C
    C   1.0     0.527304     0.210624     0.944592  Biso 1.000000     C
    C   1.0     0.584422     0.057823     0.267520  Biso 1.000000     C
    C   1.0     0.368997     0.754862     0.369032  Biso 1.000000     C
    C   1.0    -0.000255     0.384500     0.631079  Biso 1.000000     C
    C   1.0     0.789144     0.732314     0.314280  Biso 1.000000     C
    C   1.0     0.732267     0.314219     0.789122  Biso 1.000000     C
    C   1.0    -0.001274     0.489633     0.680246  Biso 1.000000     C
    C   1.0     0.615143     0.615087     0.244892  Biso 1.000000     C
    C   1.0     0.615130     0.244893     0.615078  Biso 1.000000     C
    C   1.0     0.189342     0.509757     0.509753  Biso 1.000000     C
    C   1.0     0.210617     0.944622     0.527379  Biso 1.000000     C
    C   1.0     0.384438     0.631109    -0.000307  Biso 1.000000     C
    C   1.0     0.473288     0.416403     0.684363  Biso 1.000000     C
    C   1.0     0.244844     0.615052     0.615055  Biso 1.000000     C
    C   1.0     0.267593     0.584391     0.057890  Biso 1.000000     C
    C   1.0     0.319230     0.319352     0.810886  Biso 1.000000     C
    C   1.0     0.732294     0.789127     0.314217  Biso 1.000000     C
    C   1.0     0.684434     0.473335     0.416536  Biso 1.000000     C
    C   1.0     0.584406     0.267537     0.057837  Biso 1.000000     C
    N   1.0     0.557267     0.284575     0.908076  Biso 1.000000     N
    N   1.0     0.442876     0.350292     0.728578  Biso 1.000000     N
    N   1.0     0.092474     0.377297     0.650162  Biso 1.000000     N
    N   1.0     0.715031     0.270831     0.622395  Biso 1.000000     N
    N   1.0     0.622408     0.714977     0.270741  Biso 1.000000     N
    N   1.0     0.442873     0.728560     0.350280  Biso 1.000000     N
    N   1.0     0.270702     0.622378     0.714954  Biso 1.000000     N
    N   1.0     0.728640     0.442907     0.350350  Biso 1.000000     N
    N   1.0     0.350195     0.728449     0.442807  Biso 1.000000     N
    N   1.0     0.284513     0.908031     0.557338  Biso 1.000000     N
    N   1.0     0.908105     0.284591     0.557227  Biso 1.000000     N
    N   1.0     0.350206     0.442809     0.728457  Biso 1.000000     N
    N   1.0     0.650339     0.092528     0.377269  Biso 1.000000     N
    N   1.0     0.284533     0.557303     0.908036  Biso 1.000000     N
    N   1.0     0.650320     0.377284     0.092533  Biso 1.000000     N
    N   1.0     0.270693     0.714950     0.622391  Biso 1.000000     N
    N   1.0     0.728647     0.350349     0.442906  Biso 1.000000     N
    N   1.0     0.092476     0.650159     0.377314  Biso 1.000000     N
    N   1.0     0.377322     0.650204     0.092492  Biso 1.000000     N
    N   1.0     0.715045     0.622408     0.270854  Biso 1.000000     N
    N   1.0     0.557306     0.908072     0.284564  Biso 1.000000     N
    N   1.0     0.622384     0.270731     0.714969  Biso 1.000000     N
    N   1.0     0.377292     0.092488     0.650230  Biso 1.000000     N
    N   1.0     0.908109     0.557238     0.284600  Biso 1.000000     N
   Zn   1.0     0.249294     0.499915     0.750426  Biso 1.000000    Zn
   Zn   1.0     0.750584     0.499929     0.249432  Biso 1.000000    Zn
   Zn   1.0     0.249293     0.750434     0.499934  Biso 1.000000    Zn
   Zn   1.0     0.499947     0.750507     0.249356  Biso 1.000000    Zn
   Zn   1.0     0.499914     0.249355     0.750503  Biso 1.000000    Zn
   Zn   1.0     0.750584     0.249426     0.499912  Biso 1.000000    Zn
