#======================================================================

# CRYSTAL DATA

#----------------------------------------------------------------------

data_VESTA_phase_1


_pd_phase_name                         MOF
_cell_length_a                         17.43000
_cell_length_b                         17.32100
_cell_length_c                         17.19600
_cell_angle_alpha                      87.84600
_cell_angle_beta                       92.44200
_cell_angle_gamma                      92.98400
_symmetry_space_group_name_H-M         "P 1"
_symmetry_Int_Tables_number            1

loop_
_symmetry_equiv_pos_as_xyz
   "x, y, z"

loop_
   _atom_site_label
   _atom_site_occupancy
   _atom_site_fract_x
   _atom_site_fract_y
   _atom_site_fract_z
   _atom_site_adp_type
   _atom_site_B_iso_or_equiv
   _atom_site_type_symbol
    H   1.0     0.622864     0.403238     0.939625  Biso 1.000000     H
    H   1.0     0.622121     0.156879     0.831000  Biso 1.000000     H
    H   1.0     0.618490     0.299908     0.840375  Biso 1.000000     H
    H   1.0     0.192955     0.973578     0.919679  Biso 1.000000     H
    H   1.0     0.614339     0.837222     0.310684  Biso 1.000000     H
    H   1.0     0.843842     0.558661     0.831185  Biso 1.000000     H
    H   1.0     0.854229     0.911861     0.318940  Biso 1.000000     H
    H   1.0     0.840897     0.813082     0.571069  Biso 1.000000     H
    H   1.0     0.288062     0.744417     0.935536  Biso 1.000000     H
    H   1.0     0.626653     0.925372     0.560932  Biso 1.000000     H
    H   1.0     0.292391     0.970955     0.822581  Biso 1.000000     H
    H   1.0     0.626032     0.929150     0.415905  Biso 1.000000     H
    H   1.0     0.177764     0.740108     0.839924  Biso 1.000000     H
    H   1.0     0.855949     0.905674     0.174815  Biso 1.000000     H
    H   1.0     0.430667     0.744457     0.930605  Biso 1.000000     H
    H   1.0     0.434589     0.969444     0.816466  Biso 1.000000     H
    H   1.0     0.850758     0.163997     0.934917  Biso 1.000000     H
    H   1.0     0.849596     0.307282     0.940486  Biso 1.000000     H
    H   1.0     0.050792     0.973252     0.920103  Biso 1.000000     H
    H   1.0     0.845636     0.414833     0.839221  Biso 1.000000     H
    H   1.0     0.034779     0.742115     0.836082  Biso 1.000000     H
    H   1.0     0.623889     0.547319     0.935543  Biso 1.000000     H
    H   1.0     0.842228     0.818479     0.426258  Biso 1.000000     H
    H   1.0     0.617604     0.828535     0.166545  Biso 1.000000     H
    H   1.0     0.370290     0.073841     0.441977  Biso 1.000000     H
    H   1.0     0.383585     0.162884     0.691627  Biso 1.000000     H
    H   1.0     0.568535     0.254861     0.069076  Biso 1.000000     H
    H   1.0     0.806523     0.025352     0.082559  Biso 1.000000     H
    H   1.0     0.565107     0.031838     0.187242  Biso 1.000000     H
    H   1.0     0.380646     0.843071     0.169468  Biso 1.000000     H
    H   1.0     0.376144     0.451720     0.067445  Biso 1.000000     H
    H   1.0     0.155081     0.180782     0.577163  Biso 1.000000     H
    H   1.0     0.143776     0.087943     0.685161  Biso 1.000000     H
    H   1.0     0.151804     0.836674     0.066046  Biso 1.000000     H
    H   1.0     0.143024     0.094555     0.829285  Biso 1.000000     H
    H   1.0     0.821119     0.260282     0.158198  Biso 1.000000     H
    H   1.0     0.381294     0.171936     0.835808  Biso 1.000000     H
    H   1.0     0.371354     0.070281     0.587005  Biso 1.000000     H
    H   1.0     0.155972     0.185983     0.432340  Biso 1.000000     H
    H   1.0     0.711021     0.254219     0.062622  Biso 1.000000     H
    H   1.0     0.155642     0.586262     0.163575  Biso 1.000000     H
    H   1.0     0.948745     0.025661     0.082900  Biso 1.000000     H
    H   1.0     0.156567     0.442390     0.172453  Biso 1.000000     H
    H   1.0     0.964119     0.258236     0.163176  Biso 1.000000     H
    H   1.0     0.152099     0.693302     0.061332  Biso 1.000000     H
    H   1.0     0.707180     0.029648     0.179692  Biso 1.000000     H
    H   1.0     0.378039     0.595826     0.062473  Biso 1.000000     H
    H   1.0     0.383402     0.699909     0.160908  Biso 1.000000     H
    C   1.0     0.737072     0.865891     0.161969  Biso 1.000000     C
    C   1.0     0.795154     0.842526     0.455642  Biso 1.000000     C
    C   1.0     0.441339     0.856551     0.872615  Biso 1.000000     C
    C   1.0     0.739014     0.859456     0.075890  Biso 1.000000     C
    C   1.0     0.803507     0.890080     0.205154  Biso 1.000000     C
    C   1.0     0.797079     0.443814     0.860670  Biso 1.000000     C
    C   1.0     0.737017     0.151955     0.881234  Biso 1.000000     C
    C   1.0     0.739790     0.066682     0.873769  Biso 1.000000     C
    C   1.0     0.734224     0.313693     0.889979  Biso 1.000000     C
    C   1.0     0.796305     0.524058     0.855926  Biso 1.000000     C
    C   1.0     0.733716     0.868858     0.574752  Biso 1.000000     C
    C   1.0     0.669457     0.270177     0.861201  Biso 1.000000     C
    C   1.0     0.794573     0.839069     0.536460  Biso 1.000000     C
    C   1.0     0.070152     0.792069     0.855270  Biso 1.000000     C
    C   1.0     0.671815     0.517631     0.913906  Biso 1.000000     C
    C   1.0     0.734342     0.874209     0.325056  Biso 1.000000     C
    C   1.0     0.399623     0.793372     0.906420  Biso 1.000000     C
    C   1.0     0.671571     0.437226     0.916125  Biso 1.000000     C
    C   1.0     0.733402     0.864988     0.661514  Biso 1.000000     C
    C   1.0     0.800682     0.194450     0.913148  Biso 1.000000     C
    C   1.0     0.802280     0.893298     0.285736  Biso 1.000000     C
    C   1.0     0.526493     0.855370     0.868527  Biso 1.000000     C
    C   1.0     0.733209     0.647845     0.877511  Biso 1.000000     C
    C   1.0     0.079000     0.922804     0.901485  Biso 1.000000     C
    C   1.0     0.671259     0.190420     0.855620  Biso 1.000000     C
    C   1.0     0.733750     0.561715     0.882771  Biso 1.000000     C
    C   1.0     0.195473     0.856980     0.879421  Biso 1.000000     C
    C   1.0     0.734155     0.874081     0.410917  Biso 1.000000     C
    C   1.0     0.402016     0.920575     0.842742  Biso 1.000000     C
    C   1.0     0.668850     0.847411     0.200557  Biso 1.000000     C
    C   1.0     0.799640     0.274496     0.916272  Biso 1.000000     C
    C   1.0     0.948478     0.859047     0.874561  Biso 1.000000     C
    C   1.0     0.149944     0.791255     0.857553  Biso 1.000000     C
    C   1.0     0.320003     0.793405     0.908573  Biso 1.000000     C
    C   1.0     0.033922     0.857838     0.877445  Biso 1.000000     C
    C   1.0     0.667293     0.852666     0.280951  Biso 1.000000     C
    C   1.0     0.734283     0.399021     0.889764  Biso 1.000000     C
    C   1.0     0.673118     0.903409     0.449770  Biso 1.000000     C
    C   1.0     0.322526     0.921255     0.846527  Biso 1.000000     C
    C   1.0     0.158722     0.922731     0.901129  Biso 1.000000     C
    C   1.0     0.673281     0.901666     0.530714  Biso 1.000000     C
    C   1.0     0.280166     0.857253     0.878543  Biso 1.000000     C
    C   1.0     0.050645     0.140652     0.127928  Biso 1.000000     C
    C   1.0     0.558217     0.143884     0.129353  Biso 1.000000     C
    C   1.0     0.329244     0.562284     0.086354  Biso 1.000000     C
    C   1.0     0.719109     0.142412     0.121720  Biso 1.000000     C
    C   1.0     0.202418     0.160068     0.466830  Biso 1.000000     C
    C   1.0     0.965240     0.141777     0.123824  Biso 1.000000     C
    C   1.0     0.195234     0.110120     0.798548  Biso 1.000000     C
    C   1.0     0.920385     0.076445     0.100443  Biso 1.000000     C
    C   1.0     0.676945     0.079051     0.155186  Biso 1.000000     C
    C   1.0     0.266420     0.438308     0.120575  Biso 1.000000     C
    C   1.0     0.323738     0.097559     0.472298  Biso 1.000000     C
    C   1.0     0.203945     0.556831     0.142188  Biso 1.000000     C
    C   1.0     0.324152     0.095941     0.553249  Biso 1.000000     C
    C   1.0     0.266867     0.601083     0.112608  Biso 1.000000     C
    C   1.0     0.473247     0.145655     0.134544  Biso 1.000000     C
    C   1.0     0.330861     0.147453     0.721762  Biso 1.000000     C
    C   1.0     0.202303     0.725937     0.085231  Biso 1.000000     C
    C   1.0     0.260494     0.140714     0.927405  Biso 1.000000     C
    C   1.0     0.262977     0.933696     0.126959  Biso 1.000000     C
    C   1.0     0.599690     0.206264     0.093836  Biso 1.000000     C
    C   1.0     0.928863     0.208001     0.144528  Biso 1.000000     C
    C   1.0     0.329847     0.152924     0.802178  Biso 1.000000     C
    C   1.0     0.201747     0.806048     0.087871  Biso 1.000000     C
    C   1.0     0.597566     0.080125     0.159806  Biso 1.000000     C
    C   1.0     0.204234     0.476550     0.147402  Biso 1.000000     C
    C   1.0     0.267478     0.686472     0.111733  Biso 1.000000     C
    C   1.0     0.263527     0.134487     0.341591  Biso 1.000000     C
    C   1.0     0.328510     0.481863     0.089065  Biso 1.000000     C
    C   1.0     0.679209     0.205858     0.090811  Biso 1.000000     C
    C   1.0     0.202085     0.156731     0.547670  Biso 1.000000     C
    C   1.0     0.263291     0.125401     0.592265  Biso 1.000000     C
    C   1.0     0.263230     0.130384     0.428379  Biso 1.000000     C
    C   1.0     0.331263     0.809688     0.145118  Biso 1.000000     C
    C   1.0     0.840642     0.076558     0.100302  Biso 1.000000     C
    C   1.0     0.266512     0.352129     0.125905  Biso 1.000000     C
    C   1.0     0.265655     0.848399     0.119513  Biso 1.000000     C
    C   1.0     0.849096     0.208832     0.141639  Biso 1.000000     C
    C   1.0     0.261921     0.134462     0.841263  Biso 1.000000     C
    C   1.0     0.803762     0.142673     0.120725  Biso 1.000000     C
    C   1.0     0.195923     0.106661     0.717958  Biso 1.000000     C
    C   1.0     0.332579     0.729834     0.140005  Biso 1.000000     C
    C   1.0     0.263578     0.125659     0.678139  Biso 1.000000     C
    O   1.0     0.783512     0.823361     0.696645  Biso 1.000000     O
    O   1.0     0.919068     0.913133     0.910308  Biso 1.000000     O
    O   1.0     0.737083     0.857518     0.868713  Biso 1.000000     O
    O   1.0     0.911032     0.806331     0.836545  Biso 1.000000     O
    O   1.0     0.559590     0.800644     0.906543  Biso 1.000000     O
    O   1.0     0.796120     0.893664     0.042276  Biso 1.000000     O
    O   1.0     0.683558     0.820188     0.042980  Biso 1.000000     O
    O   1.0     0.792787     0.033344     0.913914  Biso 1.000000     O
    O   1.0     0.559964     0.908919     0.827156  Biso 1.000000     O
    O   1.0     0.779367     0.682498     0.830379  Biso 1.000000     O
    O   1.0     0.686664     0.679734     0.920342  Biso 1.000000     O
    O   1.0     0.689729     0.034058     0.827718  Biso 1.000000     O
    O   1.0     0.683317     0.903472     0.693316  Biso 1.000000     O
    O   1.0     0.312921     0.966371     0.173130  Biso 1.000000     O
    O   1.0     0.213526     0.176361     0.306602  Biso 1.000000     O
    O   1.0     0.313035     0.320192     0.083084  Biso 1.000000     O
    O   1.0     0.080875     0.086468     0.093080  Biso 1.000000     O
    O   1.0     0.203427     0.106577     0.961110  Biso 1.000000     O
    O   1.0     0.262241     0.142879     0.135097  Biso 1.000000     O
    O   1.0     0.316158     0.179735     0.960292  Biso 1.000000     O
    O   1.0     0.440054     0.200045     0.096177  Biso 1.000000     O
    O   1.0     0.439953     0.092976     0.177061  Biso 1.000000     O
    O   1.0     0.220152     0.317553     0.172888  Biso 1.000000     O
    O   1.0     0.313665     0.096082     0.309761  Biso 1.000000     O
    O   1.0     0.209935     0.966942     0.086780  Biso 1.000000     O
    O   1.0     0.087203     0.193676     0.166309  Biso 1.000000     O
   Zn   1.0     0.669668     0.789986     0.933403  Biso 1.000000    Zn
   Zn   1.0     0.800188     0.793583     0.807193  Biso 1.000000    Zn
   Zn   1.0     0.810000     0.922861     0.930599  Biso 1.000000    Zn
   Zn   1.0     0.669753     0.923745     0.803710  Biso 1.000000    Zn
   Zn   1.0     0.329910     0.209995     0.069991  Biso 1.000000    Zn
   Zn   1.0     0.197796     0.206450     0.195929  Biso 1.000000    Zn
   Zn   1.0     0.330033     0.076529     0.199623  Biso 1.000000    Zn
   Zn   1.0     0.190090     0.077132     0.072743  Biso 1.000000    Zn
