#======================================================================

# CRYSTAL DATA

#----------------------------------------------------------------------

data_VESTA_phase_1


_pd_phase_name                         MOF
_cell_length_a                         10.31900
_cell_length_b                         22.05500
_cell_length_c                         15.27400
_cell_angle_alpha                      83.31000
_cell_angle_beta                       87.65700
_cell_angle_gamma                      83.12800
_symmetry_space_group_name_H-M         "P 1"
_symmetry_Int_Tables_number            1

loop_
_symmetry_equiv_pos_as_xyz
   "x, y, z"

loop_
   _atom_site_label
   _atom_site_occupancy
   _atom_site_fract_x
   _atom_site_fract_y
   _atom_site_fract_z
   _atom_site_adp_type
   _atom_site_B_iso_or_equiv
   _atom_site_type_symbol
    H   1.0     0.233036     0.376927     0.400539  Biso 1.000000     H
    H   1.0     0.222500     0.892972     0.400549  Biso 1.000000     H
    H   1.0     0.743058     0.376927     0.400539  Biso 1.000000     H
    H   1.0     0.732522     0.892972     0.400549  Biso 1.000000     H
    H   1.0     0.336107     0.080194     0.732717  Biso 1.000000     H
    H   1.0     0.325573     0.596252     0.732737  Biso 1.000000     H
    H   1.0     0.846131     0.080194     0.732717  Biso 1.000000     H
    H   1.0     0.835596     0.596252     0.732737  Biso 1.000000     H
    H   1.0     0.471427     0.372557     0.482542  Biso 1.000000     H
    H   1.0     0.460901     0.888606     0.482541  Biso 1.000000     H
    H   1.0     0.981449     0.372557     0.482542  Biso 1.000000     H
    H   1.0     0.970923     0.888606     0.482541  Biso 1.000000     H
    H   1.0     0.016431     0.146015     0.511807  Biso 1.000000     H
    H   1.0     0.005906     0.662064     0.511807  Biso 1.000000     H
    H   1.0     0.526454     0.146015     0.511807  Biso 1.000000     H
    H   1.0     0.515928     0.662064     0.511807  Biso 1.000000     H
    H   1.0     0.435021     0.222232     0.739403  Biso 1.000000     H
    H   1.0     0.424474     0.738280     0.739397  Biso 1.000000     H
    H   1.0     0.945044     0.222232     0.739403  Biso 1.000000     H
    H   1.0     0.934497     0.738280     0.739397  Biso 1.000000     H
    H   1.0     0.207384     0.089489     0.054507  Biso 1.000000     H
    H   1.0     0.196823     0.605533     0.054528  Biso 1.000000     H
    H   1.0     0.717407     0.089489     0.054508  Biso 1.000000     H
    H   1.0     0.706846     0.605533     0.054529  Biso 1.000000     H
    H   1.0     0.396548     0.392518     0.625308  Biso 1.000000     H
    H   1.0     0.386017     0.908565     0.625306  Biso 1.000000     H
    H   1.0     0.906570     0.392518     0.625309  Biso 1.000000     H
    H   1.0     0.896038     0.908565     0.625306  Biso 1.000000     H
    H   1.0     0.486499     0.361268     0.118697  Biso 1.000000     H
    H   1.0     0.475954     0.877329     0.118700  Biso 1.000000     H
    H   1.0     0.996522     0.361268     0.118697  Biso 1.000000     H
    H   1.0     0.985977     0.877329     0.118701  Biso 1.000000     H
    H   1.0     0.280567     0.429077     0.939796  Biso 1.000000     H
    H   1.0     0.270008     0.945121     0.939815  Biso 1.000000     H
    H   1.0     0.790590     0.429077     0.939797  Biso 1.000000     H
    H   1.0     0.780031     0.945121     0.939815  Biso 1.000000     H
    H   1.0     0.091324     0.126059     0.369046  Biso 1.000000     H
    H   1.0     0.080793     0.642106     0.369044  Biso 1.000000     H
    H   1.0     0.601346     0.126058     0.369046  Biso 1.000000     H
    H   1.0     0.590815     0.642105     0.369044  Biso 1.000000     H
    H   1.0     0.001407     0.157287     0.875649  Biso 1.000000     H
    H   1.0    -0.009139     0.673350     0.875653  Biso 1.000000     H
    H   1.0     0.511430     0.157287     0.875649  Biso 1.000000     H
    H   1.0     0.500884     0.673349     0.875653  Biso 1.000000     H
    H   1.0     0.247934     0.249648     0.326137  Biso 1.000000     H
    H   1.0     0.237408     0.765696     0.326141  Biso 1.000000     H
    H   1.0     0.757957     0.249647     0.326138  Biso 1.000000     H
    H   1.0     0.747430     0.765696     0.326142  Biso 1.000000     H
    H   1.0     0.192989     0.191951     0.205627  Biso 1.000000     H
    H   1.0     0.182456     0.708000     0.205633  Biso 1.000000     H
    H   1.0     0.703012     0.191951     0.205628  Biso 1.000000     H
    H   1.0     0.692478     0.707999     0.205634  Biso 1.000000     H
    H   1.0     0.453123     0.450317     0.746055  Biso 1.000000     H
    H   1.0     0.442585     0.966365     0.746055  Biso 1.000000     H
    H   1.0     0.963145     0.450317     0.746056  Biso 1.000000     H
    H   1.0     0.952607     0.966365     0.746055  Biso 1.000000     H
    H   1.0     0.239932     0.268925     0.668196  Biso 1.000000     H
    H   1.0     0.229405     0.784973     0.668198  Biso 1.000000     H
    H   1.0     0.749955     0.268924     0.668196  Biso 1.000000     H
    H   1.0     0.739427     0.784973     0.668199  Biso 1.000000     H
    H   1.0     0.052875     0.296338     0.254958  Biso 1.000000     H
    H   1.0     0.042329     0.812386     0.254952  Biso 1.000000     H
    H   1.0     0.562898     0.296338     0.254958  Biso 1.000000     H
    H   1.0     0.552353     0.812386     0.254952  Biso 1.000000     H
    H   1.0     0.254835     0.141647     0.593791  Biso 1.000000     H
    H   1.0     0.244299     0.657692     0.593801  Biso 1.000000     H
    H   1.0     0.764858     0.141647     0.593791  Biso 1.000000     H
    H   1.0     0.754322     0.657692     0.593802  Biso 1.000000     H
    H   1.0     0.151778     0.438369     0.261600  Biso 1.000000     H
    H   1.0     0.141244     0.954425     0.261619  Biso 1.000000     H
    H   1.0     0.661800     0.438369     0.261600  Biso 1.000000     H
    H   1.0     0.651267     0.954426     0.261619  Biso 1.000000     H
    H   1.0     0.294899     0.326620     0.788700  Biso 1.000000     H
    H   1.0     0.284365     0.842669     0.788705  Biso 1.000000     H
    H   1.0     0.804921     0.326619     0.788701  Biso 1.000000     H
    H   1.0     0.794388     0.842669     0.788706  Biso 1.000000     H
    H   1.0     0.034767     0.068256     0.248296  Biso 1.000000     H
    H   1.0     0.024229     0.584304     0.248297  Biso 1.000000     H
    H   1.0     0.544789     0.068256     0.248297  Biso 1.000000     H
    H   1.0     0.534252     0.584303     0.248297  Biso 1.000000     H
    C   1.0     0.282491     0.177856     0.241575  Biso 1.000000     C
    C   1.0     0.271955     0.693903     0.241583  Biso 1.000000     C
    C   1.0     0.792514     0.177856     0.241575  Biso 1.000000     C
    C   1.0     0.781978     0.693903     0.241583  Biso 1.000000     C
    C   1.0     0.006917     0.196134     0.504313  Biso 1.000000     C
    C   1.0    -0.003607     0.712183     0.504313  Biso 1.000000     C
    C   1.0     0.516940     0.196134     0.504313  Biso 1.000000     C
    C   1.0     0.506415     0.712183     0.504313  Biso 1.000000     C
    C   1.0     0.480940     0.322438     0.490036  Biso 1.000000     C
    C   1.0     0.470416     0.838487     0.490035  Biso 1.000000     C
    C   1.0     0.990962     0.322438     0.490036  Biso 1.000000     C
    C   1.0     0.980438     0.838487     0.490035  Biso 1.000000     C
    C   1.0     0.244391     0.110337     0.732823  Biso 1.000000     C
    C   1.0     0.233826     0.626373     0.732830  Biso 1.000000     C
    C   1.0     0.754413     0.110337     0.732823  Biso 1.000000     C
    C   1.0     0.743850     0.626373     0.732831  Biso 1.000000     C
    C   1.0     0.205396     0.340717     0.752755  Biso 1.000000     C
    C   1.0     0.194859     0.856764     0.752762  Biso 1.000000     C
    C   1.0     0.715419     0.340717     0.752755  Biso 1.000000     C
    C   1.0     0.704882     0.856764     0.752762  Biso 1.000000     C
    C   1.0     0.466047     0.228070     0.425965  Biso 1.000000     C
    C   1.0     0.455524     0.744119     0.425965  Biso 1.000000     C
    C   1.0     0.976069     0.228070     0.425965  Biso 1.000000     C
    C   1.0     0.965546     0.744119     0.425965  Biso 1.000000     C
    C   1.0     0.084778     0.186519     0.657248  Biso 1.000000     C
    C   1.0     0.074217     0.702552     0.657242  Biso 1.000000     C
    C   1.0     0.594800     0.186518     0.657247  Biso 1.000000     C
    C   1.0     0.584240     0.702552     0.657242  Biso 1.000000     C
    C   1.0     0.174073     0.308375     0.685298  Biso 1.000000     C
    C   1.0     0.163551     0.824427     0.685295  Biso 1.000000     C
    C   1.0     0.684096     0.308374     0.685298  Biso 1.000000     C
    C   1.0     0.673574     0.824426     0.685296  Biso 1.000000     C
    C   1.0     0.261291     0.437974     0.097725  Biso 1.000000     C
    C   1.0     0.250730     0.954029     0.097737  Biso 1.000000     C
    C   1.0     0.771314     0.437974     0.097725  Biso 1.000000     C
    C   1.0     0.760753     0.954029     0.097737  Biso 1.000000     C
    C   1.0     0.226636     0.080591     0.896606  Biso 1.000000     C
    C   1.0     0.216073     0.596647     0.896619  Biso 1.000000     C
    C   1.0     0.736659     0.080591     0.896607  Biso 1.000000     C
    C   1.0     0.726096     0.596647     0.896619  Biso 1.000000     C
    C   1.0     0.058172     0.325863     0.638630  Biso 1.000000     C
    C   1.0     0.047641     0.841909     0.638636  Biso 1.000000     C
    C   1.0     0.568196     0.325863     0.638630  Biso 1.000000     C
    C   1.0     0.557665     0.841909     0.638635  Biso 1.000000     C
    C   1.0     0.337754     0.093230     0.144291  Biso 1.000000     C
    C   1.0     0.327207     0.609277     0.144296  Biso 1.000000     C
    C   1.0     0.847778     0.093230     0.144291  Biso 1.000000     C
    C   1.0     0.837230     0.609277     0.144297  Biso 1.000000     C
    C   1.0     0.430720     0.363930     0.180425  Biso 1.000000     C
    C   1.0     0.420151     0.879971     0.180422  Biso 1.000000     C
    C   1.0     0.940744     0.363931     0.180425  Biso 1.000000     C
    C   1.0     0.930173     0.879971     0.180422  Biso 1.000000     C
    C   1.0     0.487377     0.378493     0.659969  Biso 1.000000     C
    C   1.0     0.476851     0.894544     0.659962  Biso 1.000000     C
    C   1.0     0.997399     0.378493     0.659969  Biso 1.000000     C
    C   1.0     0.986873     0.894544     0.659962  Biso 1.000000     C
    C   1.0     0.150165     0.425335     0.850050  Biso 1.000000     C
    C   1.0     0.139618     0.941383     0.850054  Biso 1.000000     C
    C   1.0     0.660188     0.425335     0.850050  Biso 1.000000     C
    C   1.0     0.649641     0.941383     0.850054  Biso 1.000000     C
    C   1.0     0.039222     0.225334     0.575659  Biso 1.000000     C
    C   1.0     0.028691     0.741384     0.575660  Biso 1.000000     C
    C   1.0     0.549246     0.225334     0.575659  Biso 1.000000     C
    C   1.0     0.538714     0.741384     0.575660  Biso 1.000000     C
    C   1.0     0.014444     0.190650     0.737392  Biso 1.000000     C
    C   1.0     0.003933     0.706721     0.737399  Biso 1.000000     C
    C   1.0     0.524468     0.190651     0.737393  Biso 1.000000     C
    C   1.0     0.513955     0.706721     0.737399  Biso 1.000000     C
    C   1.0     0.000492     0.140078     0.334386  Biso 1.000000     C
    C   1.0    -0.010034     0.656129     0.334381  Biso 1.000000     C
    C   1.0     0.510514     0.140078     0.334387  Biso 1.000000     C
    C   1.0     0.499989     0.656128     0.334381  Biso 1.000000     C
    C   1.0     0.057209     0.154647     0.813926  Biso 1.000000     C
    C   1.0     0.046636     0.670688     0.813924  Biso 1.000000     C
    C   1.0     0.567231     0.154647     0.813926  Biso 1.000000     C
    C   1.0     0.556660     0.670688     0.813924  Biso 1.000000     C
    C   1.0     0.365936     0.126601     0.218999  Biso 1.000000     C
    C   1.0     0.355395     0.642647     0.219003  Biso 1.000000     C
    C   1.0     0.875959     0.126601     0.218999  Biso 1.000000     C
    C   1.0     0.865418     0.642647     0.219004  Biso 1.000000     C
    C   1.0     0.479840     0.107681     0.266665  Biso 1.000000     C
    C   1.0     0.469299     0.623727     0.266669  Biso 1.000000     C
    C   1.0     0.989863     0.107681     0.266665  Biso 1.000000     C
    C   1.0     0.979323     0.623727     0.266668  Biso 1.000000     C
    C   1.0     0.243525     0.408247     0.261511  Biso 1.000000     C
    C   1.0     0.232963     0.924283     0.261518  Biso 1.000000     C
    C   1.0     0.753548     0.408248     0.261512  Biso 1.000000     C
    C   1.0     0.742985     0.924283     0.261518  Biso 1.000000     C
    C   1.0     0.313871     0.403558     0.181563  Biso 1.000000     C
    C   1.0     0.303330     0.919618     0.181572  Biso 1.000000     C
    C   1.0     0.823893     0.403557     0.181563  Biso 1.000000     C
    C   1.0     0.813353     0.919618     0.181572  Biso 1.000000     C
    C   1.0     0.021811     0.290501     0.568383  Biso 1.000000     C
    C   1.0     0.011286     0.806551     0.568383  Biso 1.000000     C
    C   1.0     0.531834     0.290501     0.568384  Biso 1.000000     C
    C   1.0     0.521309     0.806551     0.568383  Biso 1.000000     C
    C   1.0     0.008050     0.410894     0.727681  Biso 1.000000     C
    C   1.0    -0.002491     0.926940     0.727683  Biso 1.000000     C
    C   1.0     0.518073     0.410894     0.727680  Biso 1.000000     C
    C   1.0     0.507533     0.926940     0.727683  Biso 1.000000     C
    C   1.0     0.473418     0.327899     0.256952  Biso 1.000000     C
    C   1.0     0.462906     0.843968     0.256957  Biso 1.000000     C
    C   1.0     0.983440     0.327898     0.256952  Biso 1.000000     C
    C   1.0     0.972929     0.843968     0.256958  Biso 1.000000     C
    C   1.0     0.198969     0.144848     0.655625  Biso 1.000000     C
    C   1.0     0.188464     0.660916     0.655643  Biso 1.000000     C
    C   1.0     0.708993     0.144849     0.655626  Biso 1.000000     C
    C   1.0     0.698487     0.660916     0.655643  Biso 1.000000     C
    C   1.0     0.288879     0.373705     0.338701  Biso 1.000000     C
    C   1.0     0.278373     0.889771     0.338717  Biso 1.000000     C
    C   1.0     0.798900     0.373704     0.338701  Biso 1.000000     C
    C   1.0     0.788396     0.889771     0.338717  Biso 1.000000     C
    C   1.0     0.429695     0.192713     0.355710  Biso 1.000000     C
    C   1.0     0.419165     0.708758     0.355716  Biso 1.000000     C
    C   1.0     0.939718     0.192713     0.355710  Biso 1.000000     C
    C   1.0     0.929188     0.708758     0.355716  Biso 1.000000     C
    C   1.0     0.121959     0.391973     0.775340  Biso 1.000000     C
    C   1.0     0.111418     0.908020     0.775343  Biso 1.000000     C
    C   1.0     0.631982     0.391972     0.775340  Biso 1.000000     C
    C   1.0     0.621441     0.908020     0.775343  Biso 1.000000     C
    C   1.0     0.403124     0.332068     0.337105  Biso 1.000000     C
    C   1.0     0.392567     0.848102     0.337099  Biso 1.000000     C
    C   1.0     0.913148     0.332068     0.337105  Biso 1.000000     C
    C   1.0     0.902588     0.848101     0.337099  Biso 1.000000     C
    C   1.0     0.313791     0.210194     0.309043  Biso 1.000000     C
    C   1.0     0.303270     0.726246     0.309042  Biso 1.000000     C
    C   1.0     0.823814     0.210194     0.309044  Biso 1.000000     C
    C   1.0     0.813292     0.726246     0.309042  Biso 1.000000     C
    C   1.0     0.448644     0.293237     0.418689  Biso 1.000000     C
    C   1.0     0.438113     0.809286     0.418689  Biso 1.000000     C
    C   1.0     0.958667     0.293237     0.418689  Biso 1.000000     C
    C   1.0     0.948136     0.809286     0.418689  Biso 1.000000     C
    C   1.0     0.174031     0.115001     0.812772  Biso 1.000000     C
    C   1.0     0.163490     0.631063     0.812782  Biso 1.000000     C
    C   1.0     0.684055     0.115001     0.812772  Biso 1.000000     C
    C   1.0     0.673513     0.631062     0.812782  Biso 1.000000     C
    O   1.0     0.145719     0.074320     0.963491  Biso 1.000000     O
    O   1.0     0.135156     0.590363     0.963501  Biso 1.000000     O
    O   1.0     0.655742     0.074319     0.963491  Biso 1.000000     O
    O   1.0     0.645179     0.590363     0.963501  Biso 1.000000     O
    O   1.0     0.141511     0.457415     0.095366  Biso 1.000000     O
    O   1.0     0.130942     0.973455     0.095369  Biso 1.000000     O
    O   1.0     0.651534     0.457416     0.095366  Biso 1.000000     O
    O   1.0     0.640965     0.973455     0.095369  Biso 1.000000     O
    O   1.0     0.417774     0.052038     0.117639  Biso 1.000000     O
    O   1.0     0.407218     0.568083     0.117642  Biso 1.000000     O
    O   1.0     0.927797     0.052038     0.117639  Biso 1.000000     O
    O   1.0     0.917241     0.568084     0.117642  Biso 1.000000     O
    O   1.0     0.346430     0.061179     0.898993  Biso 1.000000     O
    O   1.0     0.335859     0.577219     0.898996  Biso 1.000000     O
    O   1.0     0.856453     0.061179     0.898993  Biso 1.000000     O
    O   1.0     0.845882     0.577219     0.898996  Biso 1.000000     O
    O   1.0     0.342201     0.444246     0.030835  Biso 1.000000     O
    O   1.0     0.331640     0.960290     0.030844  Biso 1.000000     O
    O   1.0     0.852224     0.444246     0.030835  Biso 1.000000     O
    O   1.0     0.841662     0.960290     0.030844  Biso 1.000000     O
    O   1.0     0.265300     0.407281     0.884869  Biso 1.000000     O
    O   1.0     0.254738     0.923323     0.884889  Biso 1.000000     O
    O   1.0     0.775323     0.407281     0.884870  Biso 1.000000     O
    O   1.0     0.764761     0.923322     0.884889  Biso 1.000000     O
    O   1.0     0.070154     0.466515     0.876739  Biso 1.000000     O
    O   1.0     0.059599     0.982561     0.876742  Biso 1.000000     O
    O   1.0     0.580178     0.466515     0.876739  Biso 1.000000     O
    O   1.0     0.569622     0.982561     0.876742  Biso 1.000000     O
    O   1.0     0.222660     0.111299     0.109421  Biso 1.000000     O
    O   1.0     0.212098     0.627340     0.109444  Biso 1.000000     O
    O   1.0     0.732683     0.111299     0.109422  Biso 1.000000     O
    O   1.0     0.722120     0.627340     0.109444  Biso 1.000000     O
   Ca   1.0    -0.000024     0.000002    -0.000027  Biso 1.000000    Ca
   Ca   1.0    -0.010588     0.516046    -0.000027  Biso 1.000000    Ca
   Ca   1.0     0.509999     0.000002    -0.000027  Biso 1.000000    Ca
   Ca   1.0     0.487945     0.518569     0.994382  Biso 1.000000    Ca
