#======================================================================

# CRYSTAL DATA

#----------------------------------------------------------------------

data_VESTA_phase_1


_pd_phase_name                         MOF
_cell_length_a                         18.77400
_cell_length_b                         21.07800
_cell_length_c                         21.13900
_cell_angle_alpha                      88.96200
_cell_angle_beta                       99.33100
_cell_angle_gamma                      80.40100
_symmetry_space_group_name_H-M         "P 1"
_symmetry_Int_Tables_number            1

loop_
_symmetry_equiv_pos_as_xyz
   "x, y, z"

loop_
   _atom_site_label
   _atom_site_occupancy
   _atom_site_fract_x
   _atom_site_fract_y
   _atom_site_fract_z
   _atom_site_adp_type
   _atom_site_B_iso_or_equiv
   _atom_site_type_symbol
    H   1.0     0.000959     0.097730     0.125627  Biso 1.000000     H
    H   1.0     0.000959     0.097726     0.625637  Biso 1.000000     H
    H   1.0     0.000954     0.597735     0.125626  Biso 1.000000     H
    H   1.0     0.000953     0.597731     0.625636  Biso 1.000000     H
    H   1.0     0.500956     0.097731     0.125628  Biso 1.000000     H
    H   1.0     0.500956     0.097727     0.625637  Biso 1.000000     H
    H   1.0     0.500951     0.597735     0.125627  Biso 1.000000     H
    H   1.0     0.500951     0.597731     0.625636  Biso 1.000000     H
    H   1.0     0.366325     0.168038     0.478928  Biso 1.000000     H
    H   1.0     0.366327     0.168035     0.978937  Biso 1.000000     H
    H   1.0     0.366320     0.668042     0.478928  Biso 1.000000     H
    H   1.0     0.366321     0.668039     0.978937  Biso 1.000000     H
    H   1.0     0.866321     0.168037     0.478927  Biso 1.000000     H
    H   1.0     0.866323     0.168034     0.978936  Biso 1.000000     H
    H   1.0     0.866315     0.668041     0.478927  Biso 1.000000     H
    H   1.0     0.866317     0.668038     0.978936  Biso 1.000000     H
    H   1.0     0.112026     0.170787     0.040967  Biso 1.000000     H
    H   1.0     0.112026     0.170784     0.540973  Biso 1.000000     H
    H   1.0     0.112023     0.670789     0.040968  Biso 1.000000     H
    H   1.0     0.112023     0.670786     0.540973  Biso 1.000000     H
    H   1.0     0.612021     0.170787     0.040966  Biso 1.000000     H
    H   1.0     0.612021     0.170784     0.540971  Biso 1.000000     H
    H   1.0     0.612018     0.670789     0.040966  Biso 1.000000     H
    H   1.0     0.612017     0.670786     0.540972  Biso 1.000000     H
    H   1.0     0.250106     0.124936     0.097074  Biso 1.000000     H
    H   1.0     0.250108     0.124932     0.597082  Biso 1.000000     H
    H   1.0     0.250100     0.624935     0.097074  Biso 1.000000     H
    H   1.0     0.250102     0.624932     0.597082  Biso 1.000000     H
    H   1.0     0.750103     0.124936     0.097073  Biso 1.000000     H
    H   1.0     0.750105     0.124932     0.597081  Biso 1.000000     H
    H   1.0     0.750098     0.624935     0.097073  Biso 1.000000     H
    H   1.0     0.750100     0.624931     0.597081  Biso 1.000000     H
    H   1.0     0.383162     0.477997     0.167193  Biso 1.000000     H
    H   1.0     0.383164     0.477994     0.667202  Biso 1.000000     H
    H   1.0     0.383158     0.977996     0.167194  Biso 1.000000     H
    H   1.0     0.383160     0.977993     0.667203  Biso 1.000000     H
    H   1.0     0.883160     0.477997     0.167193  Biso 1.000000     H
    H   1.0     0.883161     0.477993     0.667202  Biso 1.000000     H
    H   1.0     0.883156     0.977996     0.167193  Biso 1.000000     H
    H   1.0     0.883158     0.977993     0.667202  Biso 1.000000     H
    H   1.0     0.137413     0.039852     0.171526  Biso 1.000000     H
    H   1.0     0.137415     0.039846     0.671534  Biso 1.000000     H
    H   1.0     0.137411     0.539857     0.171527  Biso 1.000000     H
    H   1.0     0.137413     0.539851     0.671536  Biso 1.000000     H
    H   1.0     0.637411     0.039852     0.171525  Biso 1.000000     H
    H   1.0     0.637413     0.039847     0.671534  Biso 1.000000     H
    H   1.0     0.637409     0.539857     0.171527  Biso 1.000000     H
    H   1.0     0.637410     0.539852     0.671535  Biso 1.000000     H
    H   1.0     0.499040     0.402268     0.374381  Biso 1.000000     H
    H   1.0     0.499040     0.402264     0.874391  Biso 1.000000     H
    H   1.0     0.499035     0.902273     0.374380  Biso 1.000000     H
    H   1.0     0.499035     0.902269     0.874389  Biso 1.000000     H
    H   1.0     0.999037     0.402269     0.374382  Biso 1.000000     H
    H   1.0     0.999037     0.402265     0.874391  Biso 1.000000     H
    H   1.0     0.999033     0.902274     0.374380  Biso 1.000000     H
    H   1.0     0.999032     0.902270     0.874390  Biso 1.000000     H
    H   1.0     0.133673     0.331962     0.021080  Biso 1.000000     H
    H   1.0     0.133675     0.331959     0.521089  Biso 1.000000     H
    H   1.0     0.133668     0.831966     0.021080  Biso 1.000000     H
    H   1.0     0.133669     0.831963     0.521089  Biso 1.000000     H
    H   1.0     0.633669     0.331962     0.021079  Biso 1.000000     H
    H   1.0     0.633671     0.331958     0.521088  Biso 1.000000     H
    H   1.0     0.633664     0.831966     0.021079  Biso 1.000000     H
    H   1.0     0.633665     0.831962     0.521088  Biso 1.000000     H
    H   1.0     0.387975     0.329213     0.459042  Biso 1.000000     H
    H   1.0     0.387975     0.329210     0.959048  Biso 1.000000     H
    H   1.0     0.387971     0.829215     0.459043  Biso 1.000000     H
    H   1.0     0.387971     0.829212     0.959048  Biso 1.000000     H
    H   1.0     0.887970     0.329212     0.459041  Biso 1.000000     H
    H   1.0     0.887969     0.329209     0.959047  Biso 1.000000     H
    H   1.0     0.887966     0.829215     0.459042  Biso 1.000000     H
    H   1.0     0.887966     0.829212     0.959047  Biso 1.000000     H
    H   1.0     0.249890     0.375064     0.402933  Biso 1.000000     H
    H   1.0     0.249892     0.375060     0.902941  Biso 1.000000     H
    H   1.0     0.249884     0.875063     0.402933  Biso 1.000000     H
    H   1.0     0.249886     0.875060     0.902941  Biso 1.000000     H
    H   1.0     0.749887     0.375064     0.402933  Biso 1.000000     H
    H   1.0     0.749889     0.375060     0.902941  Biso 1.000000     H
    H   1.0     0.749882     0.875063     0.402933  Biso 1.000000     H
    H   1.0     0.749884     0.875060     0.902941  Biso 1.000000     H
    H   1.0     0.116833     0.022002     0.332814  Biso 1.000000     H
    H   1.0     0.116835     0.021999     0.832823  Biso 1.000000     H
    H   1.0     0.116830     0.522002     0.332815  Biso 1.000000     H
    H   1.0     0.116832     0.521998     0.832824  Biso 1.000000     H
    H   1.0     0.616831     0.022002     0.332814  Biso 1.000000     H
    H   1.0     0.616833     0.021999     0.832823  Biso 1.000000     H
    H   1.0     0.616828     0.522002     0.332815  Biso 1.000000     H
    H   1.0     0.616830     0.521998     0.832824  Biso 1.000000     H
    H   1.0     0.362580     0.460147     0.328480  Biso 1.000000     H
    H   1.0     0.362582     0.460141     0.828488  Biso 1.000000     H
    H   1.0     0.362578     0.960152     0.328482  Biso 1.000000     H
    H   1.0     0.362579     0.960146     0.828490  Biso 1.000000     H
    H   1.0     0.862578     0.460147     0.328480  Biso 1.000000     H
    H   1.0     0.862580     0.460141     0.828488  Biso 1.000000     H
    H   1.0     0.862575     0.960153     0.328481  Biso 1.000000     H
    H   1.0     0.862577     0.960147     0.828490  Biso 1.000000     H
    C   1.0     0.430663     0.229990     0.485175  Biso 1.000000     C
    C   1.0     0.430663     0.229988     0.985183  Biso 1.000000     C
    C   1.0     0.430659     0.729992     0.485175  Biso 1.000000     C
    C   1.0     0.430660     0.729990     0.985184  Biso 1.000000     C
    C   1.0     0.930658     0.229989     0.485174  Biso 1.000000     C
    C   1.0     0.930658     0.229987     0.985183  Biso 1.000000     C
    C   1.0     0.930654     0.729992     0.485174  Biso 1.000000     C
    C   1.0     0.930655     0.729989     0.985183  Biso 1.000000     C
    C   1.0     0.494823     0.184885     0.008872  Biso 1.000000     C
    C   1.0     0.494822     0.184883     0.508881  Biso 1.000000     C
    C   1.0     0.494820     0.684886     0.008871  Biso 1.000000     C
    C   1.0     0.494819     0.684885     0.508880  Biso 1.000000     C
    C   1.0     0.994818     0.184885     0.008872  Biso 1.000000     C
    C   1.0     0.994818     0.184883     0.508881  Biso 1.000000     C
    C   1.0     0.994815     0.684886     0.008872  Biso 1.000000     C
    C   1.0     0.994814     0.684885     0.508881  Biso 1.000000     C
    C   1.0     0.062675     0.205486     0.023119  Biso 1.000000     C
    C   1.0     0.062674     0.205484     0.523127  Biso 1.000000     C
    C   1.0     0.062671     0.705488     0.023119  Biso 1.000000     C
    C   1.0     0.062671     0.705486     0.523127  Biso 1.000000     C
    C   1.0     0.562669     0.205485     0.023119  Biso 1.000000     C
    C   1.0     0.562669     0.205483     0.523126  Biso 1.000000     C
    C   1.0     0.562666     0.705487     0.023118  Biso 1.000000     C
    C   1.0     0.562666     0.705485     0.523126  Biso 1.000000     C
    C   1.0     0.319253     0.485176     0.229558  Biso 1.000000     C
    C   1.0     0.319255     0.485172     0.729567  Biso 1.000000     C
    C   1.0     0.319250     0.985176     0.229559  Biso 1.000000     C
    C   1.0     0.319252     0.985170     0.729567  Biso 1.000000     C
    C   1.0     0.819251     0.485176     0.229558  Biso 1.000000     C
    C   1.0     0.819252     0.485171     0.729567  Biso 1.000000     C
    C   1.0     0.819248     0.985174     0.229558  Biso 1.000000     C
    C   1.0     0.819249     0.985171     0.729567  Biso 1.000000     C
    C   1.0     0.254744     0.008330     0.184895  Biso 1.000000     C
    C   1.0     0.254745     0.008326     0.684904  Biso 1.000000     C
    C   1.0     0.254741     0.508330     0.184895  Biso 1.000000     C
    C   1.0     0.254742     0.508325     0.684904  Biso 1.000000     C
    C   1.0     0.754742     0.008331     0.184895  Biso 1.000000     C
    C   1.0     0.754743     0.008325     0.684903  Biso 1.000000     C
    C   1.0     0.754738     0.508330     0.184895  Biso 1.000000     C
    C   1.0     0.754739     0.508325     0.684903  Biso 1.000000     C
    C   1.0     0.187000     0.022519     0.205923  Biso 1.000000     C
    C   1.0     0.187001     0.022514     0.705932  Biso 1.000000     C
    C   1.0     0.186997     0.522521     0.205924  Biso 1.000000     C
    C   1.0     0.186999     0.522515     0.705933  Biso 1.000000     C
    C   1.0     0.686998     0.022520     0.205923  Biso 1.000000     C
    C   1.0     0.686999     0.022514     0.705931  Biso 1.000000     C
    C   1.0     0.686995     0.522521     0.205924  Biso 1.000000     C
    C   1.0     0.686996     0.522515     0.705932  Biso 1.000000     C
    C   1.0     0.069337     0.270010     0.014833  Biso 1.000000     C
    C   1.0     0.069337     0.270007     0.514842  Biso 1.000000     C
    C   1.0     0.069333     0.770012     0.014833  Biso 1.000000     C
    C   1.0     0.069334     0.770010     0.514842  Biso 1.000000     C
    C   1.0     0.569332     0.270009     0.014833  Biso 1.000000     C
    C   1.0     0.569332     0.270007     0.514842  Biso 1.000000     C
    C   1.0     0.569328     0.770011     0.014834  Biso 1.000000     C
    C   1.0     0.569329     0.770009     0.514842  Biso 1.000000     C
    C   1.0     0.005177     0.315114     0.491135  Biso 1.000000     C
    C   1.0     0.005176     0.315112     0.991144  Biso 1.000000     C
    C   1.0     0.005174     0.815115     0.491135  Biso 1.000000     C
    C   1.0     0.005173     0.815114     0.991144  Biso 1.000000     C
    C   1.0     0.505172     0.315114     0.491135  Biso 1.000000     C
    C   1.0     0.505172     0.315112     0.991144  Biso 1.000000     C
    C   1.0     0.505169     0.815115     0.491134  Biso 1.000000     C
    C   1.0     0.505168     0.815114     0.991144  Biso 1.000000     C
    C   1.0     0.437326     0.294513     0.476889  Biso 1.000000     C
    C   1.0     0.437326     0.294511     0.976896  Biso 1.000000     C
    C   1.0     0.437323     0.794515     0.476888  Biso 1.000000     C
    C   1.0     0.437323     0.794513     0.976896  Biso 1.000000     C
    C   1.0     0.937321     0.294513     0.476888  Biso 1.000000     C
    C   1.0     0.937321     0.294511     0.976896  Biso 1.000000     C
    C   1.0     0.937318     0.794515     0.476888  Biso 1.000000     C
    C   1.0     0.937317     0.794513     0.976896  Biso 1.000000     C
    C   1.0     0.180741     0.014825     0.270448  Biso 1.000000     C
    C   1.0     0.180742     0.014820     0.770457  Biso 1.000000     C
    C   1.0     0.180737     0.514823     0.270449  Biso 1.000000     C
    C   1.0     0.180739     0.514819     0.770457  Biso 1.000000     C
    C   1.0     0.680738     0.014824     0.270447  Biso 1.000000     C
    C   1.0     0.680740     0.014820     0.770456  Biso 1.000000     C
    C   1.0     0.680735     0.514823     0.270448  Biso 1.000000     C
    C   1.0     0.680736     0.514819     0.770457  Biso 1.000000     C
    C   1.0     0.245250     0.491670     0.315112  Biso 1.000000     C
    C   1.0     0.245252     0.491665     0.815120  Biso 1.000000     C
    C   1.0     0.245247     0.991669     0.315112  Biso 1.000000     C
    C   1.0     0.245248     0.991665     0.815120  Biso 1.000000     C
    C   1.0     0.745248     0.491670     0.315111  Biso 1.000000     C
    C   1.0     0.745249     0.491665     0.815120  Biso 1.000000     C
    C   1.0     0.745244     0.991670     0.315112  Biso 1.000000     C
    C   1.0     0.745246     0.991664     0.815120  Biso 1.000000     C
    C   1.0     0.312994     0.477481     0.294083  Biso 1.000000     C
    C   1.0     0.312995     0.477476     0.794092  Biso 1.000000     C
    C   1.0     0.312991     0.977482     0.294084  Biso 1.000000     C
    C   1.0     0.312992     0.977477     0.794092  Biso 1.000000     C
    C   1.0     0.812992     0.477482     0.294083  Biso 1.000000     C
    C   1.0     0.812993     0.477476     0.794092  Biso 1.000000     C
    C   1.0     0.812988     0.977483     0.294084  Biso 1.000000     C
    C   1.0     0.812990     0.977477     0.794092  Biso 1.000000     C
    O   1.0     0.031563     0.080114     0.094745  Biso 1.000000     O
    O   1.0     0.031563     0.080112     0.594754  Biso 1.000000     O
    O   1.0     0.031558     0.580115     0.094745  Biso 1.000000     O
    O   1.0     0.031558     0.580114     0.594754  Biso 1.000000     O
    O   1.0     0.531559     0.080114     0.094744  Biso 1.000000     O
    O   1.0     0.531559     0.080112     0.594753  Biso 1.000000     O
    O   1.0     0.531554     0.580115     0.094744  Biso 1.000000     O
    O   1.0     0.531554     0.580113     0.594753  Biso 1.000000     O
    O   1.0     0.413837     0.092336     0.010572  Biso 1.000000     O
    O   1.0     0.413836     0.092335     0.510582  Biso 1.000000     O
    O   1.0     0.413833     0.592337     0.010570  Biso 1.000000     O
    O   1.0     0.413833     0.592336     0.510580  Biso 1.000000     O
    O   1.0     0.913832     0.092337     0.010572  Biso 1.000000     O
    O   1.0     0.913831     0.092336     0.510582  Biso 1.000000     O
    O   1.0     0.913829     0.592338     0.010570  Biso 1.000000     O
    O   1.0     0.913828     0.592337     0.510580  Biso 1.000000     O
    O   1.0     0.043880     0.061475     0.480903  Biso 1.000000     O
    O   1.0     0.043880     0.061474     0.980915  Biso 1.000000     O
    O   1.0     0.043879     0.561473     0.480905  Biso 1.000000     O
    O   1.0     0.043879     0.561472     0.980916  Biso 1.000000     O
    O   1.0     0.543875     0.061475     0.480903  Biso 1.000000     O
    O   1.0     0.543875     0.061474     0.980914  Biso 1.000000     O
    O   1.0     0.543873     0.561473     0.480904  Biso 1.000000     O
    O   1.0     0.543873     0.561472     0.980916  Biso 1.000000     O
    O   1.0     0.362484     0.214823     0.469548  Biso 1.000000     O
    O   1.0     0.362485     0.214819     0.969556  Biso 1.000000     O
    O   1.0     0.362480     0.714826     0.469548  Biso 1.000000     O
    O   1.0     0.362481     0.714823     0.969557  Biso 1.000000     O
    O   1.0     0.862480     0.214822     0.469547  Biso 1.000000     O
    O   1.0     0.862481     0.214819     0.969556  Biso 1.000000     O
    O   1.0     0.862475     0.714826     0.469548  Biso 1.000000     O
    O   1.0     0.862476     0.714823     0.969557  Biso 1.000000     O
    O   1.0     0.218607     0.094519     0.080274  Biso 1.000000     O
    O   1.0     0.218607     0.094516     0.580284  Biso 1.000000     O
    O   1.0     0.218602     0.594518     0.080273  Biso 1.000000     O
    O   1.0     0.218603     0.594515     0.580284  Biso 1.000000     O
    O   1.0     0.718603     0.094520     0.080274  Biso 1.000000     O
    O   1.0     0.718604     0.094516     0.580284  Biso 1.000000     O
    O   1.0     0.718599     0.594518     0.080274  Biso 1.000000     O
    O   1.0     0.718599     0.594515     0.580284  Biso 1.000000     O
    O   1.0     0.334915     0.008059     0.091680  Biso 1.000000     O
    O   1.0     0.334916     0.008057     0.591691  Biso 1.000000     O
    O   1.0     0.334911     0.508058     0.091680  Biso 1.000000     O
    O   1.0     0.334912     0.508056     0.591690  Biso 1.000000     O
    O   1.0     0.834912     0.008059     0.091680  Biso 1.000000     O
    O   1.0     0.834913     0.008057     0.591690  Biso 1.000000     O
    O   1.0     0.834908     0.508058     0.091679  Biso 1.000000     O
    O   1.0     0.834909     0.508056     0.591690  Biso 1.000000     O
    O   1.0     0.203618     0.480942     0.062514  Biso 1.000000     O
    O   1.0     0.203621     0.480939     0.562521  Biso 1.000000     O
    O   1.0     0.203615     0.980938     0.062513  Biso 1.000000     O
    O   1.0     0.203617     0.980935     0.562521  Biso 1.000000     O
    O   1.0     0.703615     0.480943     0.062513  Biso 1.000000     O
    O   1.0     0.703618     0.480939     0.562520  Biso 1.000000     O
    O   1.0     0.703612     0.980938     0.062512  Biso 1.000000     O
    O   1.0     0.703614     0.980935     0.562520  Biso 1.000000     O
    O   1.0     0.387400     0.469540     0.214028  Biso 1.000000     O
    O   1.0     0.387401     0.469537     0.714037  Biso 1.000000     O
    O   1.0     0.387396     0.969538     0.214029  Biso 1.000000     O
    O   1.0     0.387398     0.969536     0.714038  Biso 1.000000     O
    O   1.0     0.887397     0.469540     0.214028  Biso 1.000000     O
    O   1.0     0.887399     0.469537     0.714037  Biso 1.000000     O
    O   1.0     0.887394     0.969538     0.214029  Biso 1.000000     O
    O   1.0     0.887396     0.969535     0.714038  Biso 1.000000     O
    O   1.0     0.468434     0.419883     0.405263  Biso 1.000000     O
    O   1.0     0.468434     0.419881     0.905272  Biso 1.000000     O
    O   1.0     0.468429     0.919884     0.405263  Biso 1.000000     O
    O   1.0     0.468429     0.919883     0.905272  Biso 1.000000     O
    O   1.0     0.968430     0.419883     0.405263  Biso 1.000000     O
    O   1.0     0.968430     0.419881     0.905272  Biso 1.000000     O
    O   1.0     0.968425     0.919884     0.405263  Biso 1.000000     O
    O   1.0     0.968425     0.919882     0.905272  Biso 1.000000     O
    O   1.0     0.086160     0.407664     0.489437  Biso 1.000000     O
    O   1.0     0.086159     0.407663     0.989447  Biso 1.000000     O
    O   1.0     0.086157     0.907665     0.489435  Biso 1.000000     O
    O   1.0     0.086156     0.907664     0.989445  Biso 1.000000     O
    O   1.0     0.586155     0.407664     0.489437  Biso 1.000000     O
    O   1.0     0.586154     0.407664     0.989446  Biso 1.000000     O
    O   1.0     0.586152     0.907666     0.489435  Biso 1.000000     O
    O   1.0     0.586151     0.907665     0.989444  Biso 1.000000     O
    O   1.0     0.456112     0.438525     0.019100  Biso 1.000000     O
    O   1.0     0.456112     0.438524     0.519112  Biso 1.000000     O
    O   1.0     0.456110     0.938524     0.019102  Biso 1.000000     O
    O   1.0     0.456110     0.938523     0.519113  Biso 1.000000     O
    O   1.0     0.956107     0.438525     0.019100  Biso 1.000000     O
    O   1.0     0.956107     0.438524     0.519111  Biso 1.000000     O
    O   1.0     0.956105     0.938524     0.019101  Biso 1.000000     O
    O   1.0     0.956105     0.938523     0.519113  Biso 1.000000     O
    O   1.0     0.137514     0.285178     0.030462  Biso 1.000000     O
    O   1.0     0.137515     0.285175     0.530471  Biso 1.000000     O
    O   1.0     0.137510     0.785182     0.030463  Biso 1.000000     O
    O   1.0     0.137511     0.785179     0.530472  Biso 1.000000     O
    O   1.0     0.637509     0.285178     0.030462  Biso 1.000000     O
    O   1.0     0.637510     0.285174     0.530470  Biso 1.000000     O
    O   1.0     0.637505     0.785181     0.030462  Biso 1.000000     O
    O   1.0     0.637506     0.785178     0.530471  Biso 1.000000     O
    O   1.0     0.281388     0.405481     0.419734  Biso 1.000000     O
    O   1.0     0.281389     0.405478     0.919744  Biso 1.000000     O
    O   1.0     0.281384     0.905479     0.419734  Biso 1.000000     O
    O   1.0     0.281384     0.905476     0.919744  Biso 1.000000     O
    O   1.0     0.781385     0.405481     0.419734  Biso 1.000000     O
    O   1.0     0.781385     0.405478     0.919745  Biso 1.000000     O
    O   1.0     0.781380     0.905479     0.419734  Biso 1.000000     O
    O   1.0     0.781381     0.905476     0.919744  Biso 1.000000     O
    O   1.0     0.165081     0.491940     0.408327  Biso 1.000000     O
    O   1.0     0.165082     0.491938     0.908337  Biso 1.000000     O
    O   1.0     0.165077     0.991938     0.408327  Biso 1.000000     O
    O   1.0     0.165079     0.991936     0.908337  Biso 1.000000     O
    O   1.0     0.665077     0.491940     0.408327  Biso 1.000000     O
    O   1.0     0.665079     0.491938     0.908337  Biso 1.000000     O
    O   1.0     0.665074     0.991938     0.408326  Biso 1.000000     O
    O   1.0     0.665075     0.991936     0.908336  Biso 1.000000     O
    O   1.0     0.296377     0.019061     0.437491  Biso 1.000000     O
    O   1.0     0.296380     0.019058     0.937498  Biso 1.000000     O
    O   1.0     0.296374     0.519057     0.437491  Biso 1.000000     O
    O   1.0     0.296376     0.519054     0.937498  Biso 1.000000     O
    O   1.0     0.796374     0.019062     0.437490  Biso 1.000000     O
    O   1.0     0.796376     0.019059     0.937497  Biso 1.000000     O
    O   1.0     0.796370     0.519058     0.437490  Biso 1.000000     O
    O   1.0     0.796373     0.519055     0.937497  Biso 1.000000     O
    O   1.0     0.112594     0.030457     0.285978  Biso 1.000000     O
    O   1.0     0.112596     0.030455     0.785987  Biso 1.000000     O
    O   1.0     0.112591     0.530456     0.285979  Biso 1.000000     O
    O   1.0     0.112592     0.530453     0.785988  Biso 1.000000     O
    O   1.0     0.612591     0.030457     0.285978  Biso 1.000000     O
    O   1.0     0.612593     0.030454     0.785987  Biso 1.000000     O
    O   1.0     0.612588     0.530456     0.285979  Biso 1.000000     O
    O   1.0     0.612590     0.530453     0.785988  Biso 1.000000     O
    P   1.0     0.494633     0.100700     0.021133  Biso 1.000000     P
    P   1.0     0.494633     0.100699     0.521142  Biso 1.000000     P
    P   1.0     0.494630     0.600700     0.021132  Biso 1.000000     P
    P   1.0     0.494630     0.600699     0.521142  Biso 1.000000     P
    P   1.0     0.994628     0.100700     0.021134  Biso 1.000000     P
    P   1.0     0.994628     0.100699     0.521143  Biso 1.000000     P
    P   1.0     0.994626     0.600700     0.021133  Biso 1.000000     P
    P   1.0     0.994625     0.600699     0.521142  Biso 1.000000     P
    P   1.0     0.254302     0.020288     0.100824  Biso 1.000000     P
    P   1.0     0.254304     0.020285     0.600833  Biso 1.000000     P
    P   1.0     0.254299     0.520287     0.100823  Biso 1.000000     P
    P   1.0     0.254300     0.520284     0.600832  Biso 1.000000     P
    P   1.0     0.754299     0.020288     0.100823  Biso 1.000000     P
    P   1.0     0.754301     0.020285     0.600832  Biso 1.000000     P
    P   1.0     0.754296     0.520287     0.100823  Biso 1.000000     P
    P   1.0     0.754297     0.520284     0.600832  Biso 1.000000     P
    P   1.0     0.005363     0.399300     0.478875  Biso 1.000000     P
    P   1.0     0.005363     0.399299     0.978884  Biso 1.000000     P
    P   1.0     0.005360     0.899301     0.478874  Biso 1.000000     P
    P   1.0     0.005360     0.899300     0.978883  Biso 1.000000     P
    P   1.0     0.505358     0.399300     0.478875  Biso 1.000000     P
    P   1.0     0.505358     0.399299     0.978884  Biso 1.000000     P
    P   1.0     0.505356     0.899301     0.478874  Biso 1.000000     P
    P   1.0     0.505355     0.899300     0.978883  Biso 1.000000     P
    P   1.0     0.245692     0.479711     0.399183  Biso 1.000000     P
    P   1.0     0.245694     0.479708     0.899192  Biso 1.000000     P
    P   1.0     0.245689     0.979710     0.399183  Biso 1.000000     P
    P   1.0     0.245690     0.979707     0.899192  Biso 1.000000     P
    P   1.0     0.745689     0.479711     0.399183  Biso 1.000000     P
    P   1.0     0.745691     0.479708     0.899192  Biso 1.000000     P
    P   1.0     0.745686     0.979710     0.399183  Biso 1.000000     P
    P   1.0     0.745687     0.979707     0.899192  Biso 1.000000     P
   Zn   1.0     0.375061     0.010172     0.010517  Biso 1.000000    Zn
   Zn   1.0     0.375062     0.010171     0.510528  Biso 1.000000    Zn
   Zn   1.0     0.375058     0.510174     0.010517  Biso 1.000000    Zn
   Zn   1.0     0.375058     0.510173     0.510527  Biso 1.000000    Zn
   Zn   1.0     0.875057     0.010173     0.010517  Biso 1.000000    Zn
   Zn   1.0     0.875057     0.010172     0.510527  Biso 1.000000    Zn
   Zn   1.0     0.875053     0.510175     0.010516  Biso 1.000000    Zn
   Zn   1.0     0.875054     0.510174     0.510526  Biso 1.000000    Zn
   Zn   1.0     0.124932     0.489828     0.489489  Biso 1.000000    Zn
   Zn   1.0     0.124932     0.489828     0.989500  Biso 1.000000    Zn
   Zn   1.0     0.124928     0.989830     0.489489  Biso 1.000000    Zn
   Zn   1.0     0.124929     0.989830     0.989499  Biso 1.000000    Zn
   Zn   1.0     0.624927     0.489829     0.489489  Biso 1.000000    Zn
   Zn   1.0     0.624927     0.489829     0.989499  Biso 1.000000    Zn
   Zn   1.0     0.624924     0.989831     0.489488  Biso 1.000000    Zn
   Zn   1.0     0.624924     0.989831     0.989498  Biso 1.000000    Zn
