#======================================================================

# CRYSTAL DATA

#----------------------------------------------------------------------

data_VESTA_phase_1


_pd_phase_name                         MOF
_cell_length_a                         20.70200
_cell_length_b                         20.70300
_cell_length_c                         14.09500
_cell_angle_alpha                      89.98000
_cell_angle_beta                       90.01900
_cell_angle_gamma                      89.95800
_symmetry_space_group_name_H-M         "P 1"
_symmetry_Int_Tables_number            1

loop_
_symmetry_equiv_pos_as_xyz
   "x, y, z"

loop_
   _atom_site_label
   _atom_site_occupancy
   _atom_site_fract_x
   _atom_site_fract_y
   _atom_site_fract_z
   _atom_site_adp_type
   _atom_site_B_iso_or_equiv
   _atom_site_type_symbol
    H   1.0     0.484711     0.285903     0.106510  Biso 1.000000     H
    H   1.0     0.484710     0.785904     0.106510  Biso 1.000000     H
    H   1.0     0.984711     0.285915     0.106517  Biso 1.000000     H
    H   1.0     0.984710     0.785907     0.106511  Biso 1.000000     H
    H   1.0     0.015149     0.214160     0.606369  Biso 1.000000     H
    H   1.0     0.015148     0.714169     0.606373  Biso 1.000000     H
    H   1.0     0.515151     0.214165     0.606364  Biso 1.000000     H
    H   1.0     0.515149     0.714170     0.606372  Biso 1.000000     H
    H   1.0     0.214206     0.484869     0.356283  Biso 1.000000     H
    H   1.0     0.214210     0.984877     0.356278  Biso 1.000000     H
    H   1.0     0.714217     0.484868     0.356279  Biso 1.000000     H
    H   1.0     0.714202     0.984879     0.356286  Biso 1.000000     H
    H   1.0     0.285834     0.015280     0.856534  Biso 1.000000     H
    H   1.0     0.285829     0.515292     0.856532  Biso 1.000000     H
    H   1.0     0.785835     0.015280     0.856537  Biso 1.000000     H
    H   1.0     0.785828     0.515291     0.856534  Biso 1.000000     H
    H   1.0     0.015214     0.285830     0.893552  Biso 1.000000     H
    H   1.0     0.015213     0.785833     0.893559  Biso 1.000000     H
    H   1.0     0.515214     0.285825     0.893552  Biso 1.000000     H
    H   1.0     0.515213     0.785836     0.893557  Biso 1.000000     H
    H   1.0     0.484894     0.214203     0.393751  Biso 1.000000     H
    H   1.0     0.484892     0.714214     0.393756  Biso 1.000000     H
    H   1.0     0.984896     0.214211     0.393755  Biso 1.000000     H
    H   1.0     0.984894     0.714210     0.393753  Biso 1.000000     H
    H   1.0     0.285924     0.484684     0.643514  Biso 1.000000     H
    H   1.0     0.285916     0.984695     0.643516  Biso 1.000000     H
    H   1.0     0.785930     0.484684     0.643513  Biso 1.000000     H
    H   1.0     0.785935     0.984697     0.643510  Biso 1.000000     H
    H   1.0     0.214107     0.015220     0.143665  Biso 1.000000     H
    H   1.0     0.214112     0.515230     0.143669  Biso 1.000000     H
    H   1.0     0.714113     0.015220     0.143672  Biso 1.000000     H
    H   1.0     0.714109     0.515230     0.143670  Biso 1.000000     H
    H   1.0     0.304931     0.250009     0.250174  Biso 1.000000     H
    H   1.0     0.304930     0.750012     0.250175  Biso 1.000000     H
    H   1.0     0.804933     0.250016     0.250181  Biso 1.000000     H
    H   1.0     0.804931     0.750009     0.250175  Biso 1.000000     H
    H   1.0     0.195055     0.250038     0.749879  Biso 1.000000     H
    H   1.0     0.195054     0.750043     0.749885  Biso 1.000000     H
    H   1.0     0.695056     0.250039     0.749879  Biso 1.000000     H
    H   1.0     0.695055     0.750047     0.749884  Biso 1.000000     H
    H   1.0     0.250023     0.304921     0.499856  Biso 1.000000     H
    H   1.0     0.250027     0.804931     0.499855  Biso 1.000000     H
    H   1.0     0.750030     0.304921     0.499856  Biso 1.000000     H
    H   1.0     0.750032     0.804932     0.499856  Biso 1.000000     H
    H   1.0     0.250067     0.195107     0.000188  Biso 1.000000     H
    H   1.0     0.250063     0.695117     0.000190  Biso 1.000000     H
    H   1.0     0.750070     0.195107     0.000194  Biso 1.000000     H
    H   1.0     0.750066     0.695117     0.000194  Biso 1.000000     H
    C   1.0     0.390562     0.269577     0.168831  Biso 1.000000     C
    C   1.0     0.390558     0.769581     0.168834  Biso 1.000000     C
    C   1.0     0.890562     0.269588     0.168838  Biso 1.000000     C
    C   1.0     0.890558     0.769580     0.168835  Biso 1.000000     C
    C   1.0     0.458203     0.270248     0.169150  Biso 1.000000     C
    C   1.0     0.458199     0.770255     0.169151  Biso 1.000000     C
    C   1.0     0.958203     0.270259     0.169157  Biso 1.000000     C
    C   1.0     0.958199     0.770259     0.169152  Biso 1.000000     C
    C   1.0     0.352770     0.287844     0.082929  Biso 1.000000     C
    C   1.0     0.352767     0.787847     0.082929  Biso 1.000000     C
    C   1.0     0.852770     0.287850     0.082934  Biso 1.000000     C
    C   1.0     0.852768     0.787846     0.082930  Biso 1.000000     C
    C   1.0     0.109361     0.230490     0.668627  Biso 1.000000     C
    C   1.0     0.109357     0.730492     0.668631  Biso 1.000000     C
    C   1.0     0.609362     0.230492     0.668625  Biso 1.000000     C
    C   1.0     0.609360     0.730495     0.668632  Biso 1.000000     C
    C   1.0     0.041714     0.229817     0.668972  Biso 1.000000     C
    C   1.0     0.041710     0.729836     0.668973  Biso 1.000000     C
    C   1.0     0.541715     0.229823     0.668968  Biso 1.000000     C
    C   1.0     0.541713     0.729831     0.668974  Biso 1.000000     C
    C   1.0     0.147147     0.212189     0.582788  Biso 1.000000     C
    C   1.0     0.147144     0.712191     0.582793  Biso 1.000000     C
    C   1.0     0.647149     0.212190     0.582787  Biso 1.000000     C
    C   1.0     0.647146     0.712195     0.582792  Biso 1.000000     C
    C   1.0     0.230510     0.390638     0.418557  Biso 1.000000     C
    C   1.0     0.230513     0.890645     0.418558  Biso 1.000000     C
    C   1.0     0.730518     0.390637     0.418555  Biso 1.000000     C
    C   1.0     0.730517     0.890646     0.418559  Biso 1.000000     C
    C   1.0     0.229879     0.458284     0.418894  Biso 1.000000     C
    C   1.0     0.229875     0.958291     0.418892  Biso 1.000000     C
    C   1.0     0.729889     0.458283     0.418891  Biso 1.000000     C
    C   1.0     0.729869     0.958291     0.418898  Biso 1.000000     C
    C   1.0     0.212169     0.352870     0.332729  Biso 1.000000     C
    C   1.0     0.212174     0.852879     0.332727  Biso 1.000000     C
    C   1.0     0.712174     0.352870     0.332728  Biso 1.000000     C
    C   1.0     0.712175     0.852879     0.332730  Biso 1.000000     C
    C   1.0     0.269561     0.109447     0.918853  Biso 1.000000     C
    C   1.0     0.269559     0.609461     0.918857  Biso 1.000000     C
    C   1.0     0.769568     0.109447     0.918858  Biso 1.000000     C
    C   1.0     0.769559     0.609460     0.918858  Biso 1.000000     C
    C   1.0     0.270186     0.041805     0.919165  Biso 1.000000     C
    C   1.0     0.270186     0.541819     0.919165  Biso 1.000000     C
    C   1.0     0.770181     0.041804     0.919167  Biso 1.000000     C
    C   1.0     0.770185     0.541818     0.919167  Biso 1.000000     C
    C   1.0     0.287840     0.147215     0.832979  Biso 1.000000     C
    C   1.0     0.287834     0.647226     0.832979  Biso 1.000000     C
    C   1.0     0.787845     0.147214     0.832983  Biso 1.000000     C
    C   1.0     0.787836     0.647226     0.832981  Biso 1.000000     C
    C   1.0     0.109394     0.269558     0.831228  Biso 1.000000     C
    C   1.0     0.109396     0.769560     0.831231  Biso 1.000000     C
    C   1.0     0.609395     0.269560     0.831226  Biso 1.000000     C
    C   1.0     0.609394     0.769564     0.831233  Biso 1.000000     C
    C   1.0     0.041749     0.270184     0.830925  Biso 1.000000     C
    C   1.0     0.041751     0.770197     0.830929  Biso 1.000000     C
    C   1.0     0.541750     0.270181     0.830925  Biso 1.000000     C
    C   1.0     0.541750     0.770194     0.830929  Biso 1.000000     C
    C   1.0     0.147171     0.287847     0.917094  Biso 1.000000     C
    C   1.0     0.147171     0.787849     0.917100  Biso 1.000000     C
    C   1.0     0.647171     0.287847     0.917095  Biso 1.000000     C
    C   1.0     0.647171     0.787853     0.917099  Biso 1.000000     C
    C   1.0     0.390652     0.230497     0.331470  Biso 1.000000     C
    C   1.0     0.390653     0.730502     0.331474  Biso 1.000000     C
    C   1.0     0.890654     0.230509     0.331478  Biso 1.000000     C
    C   1.0     0.890655     0.730501     0.331475  Biso 1.000000     C
    C   1.0     0.458300     0.229865     0.331139  Biso 1.000000     C
    C   1.0     0.458301     0.729880     0.331145  Biso 1.000000     C
    C   1.0     0.958302     0.229871     0.331144  Biso 1.000000     C
    C   1.0     0.958303     0.729878     0.331143  Biso 1.000000     C
    C   1.0     0.352882     0.212158     0.417304  Biso 1.000000     C
    C   1.0     0.352881     0.712163     0.417306  Biso 1.000000     C
    C   1.0     0.852883     0.212164     0.417308  Biso 1.000000     C
    C   1.0     0.852882     0.712161     0.417306  Biso 1.000000     C
    C   1.0     0.269588     0.390545     0.581196  Biso 1.000000     C
    C   1.0     0.269590     0.890558     0.581198  Biso 1.000000     C
    C   1.0     0.769596     0.390545     0.581195  Biso 1.000000     C
    C   1.0     0.769596     0.890560     0.581198  Biso 1.000000     C
    C   1.0     0.270268     0.458182     0.580871  Biso 1.000000     C
    C   1.0     0.270254     0.958196     0.580874  Biso 1.000000     C
    C   1.0     0.770275     0.458183     0.580870  Biso 1.000000     C
    C   1.0     0.770271     0.958197     0.580869  Biso 1.000000     C
    C   1.0     0.287835     0.352756     0.667102  Biso 1.000000     C
    C   1.0     0.287838     0.852768     0.667103  Biso 1.000000     C
    C   1.0     0.787839     0.352757     0.667103  Biso 1.000000     C
    C   1.0     0.787844     0.852768     0.667102  Biso 1.000000     C
    C   1.0     0.230480     0.109417     0.081420  Biso 1.000000     C
    C   1.0     0.230478     0.609425     0.081424  Biso 1.000000     C
    C   1.0     0.730487     0.109418     0.081425  Biso 1.000000     C
    C   1.0     0.730478     0.609425     0.081425  Biso 1.000000     C
    C   1.0     0.229792     0.041773     0.081068  Biso 1.000000     C
    C   1.0     0.229802     0.541781     0.081072  Biso 1.000000     C
    C   1.0     0.729792     0.041774     0.081072  Biso 1.000000     C
    C   1.0     0.729798     0.541781     0.081073  Biso 1.000000     C
    C   1.0     0.212184     0.147197     0.167258  Biso 1.000000     C
    C   1.0     0.212180     0.647206     0.167259  Biso 1.000000     C
    C   1.0     0.712191     0.147198     0.167263  Biso 1.000000     C
    C   1.0     0.712182     0.647207     0.167261  Biso 1.000000     C
    C   1.0     0.357369     0.250035     0.250155  Biso 1.000000     C
    C   1.0     0.357367     0.750043     0.250163  Biso 1.000000     C
    C   1.0     0.857370     0.250042     0.250161  Biso 1.000000     C
    C   1.0     0.857368     0.750043     0.250164  Biso 1.000000     C
    C   1.0     0.491868     0.250066     0.250129  Biso 1.000000     C
    C   1.0     0.491867     0.750069     0.250126  Biso 1.000000     C
    C   1.0     0.991869     0.250077     0.250135  Biso 1.000000     C
    C   1.0     0.991868     0.750069     0.250124  Biso 1.000000     C
    C   1.0     0.064211     0.250049     0.250031  Biso 1.000000     C
    C   1.0     0.064209     0.750048     0.250023  Biso 1.000000     C
    C   1.0     0.564212     0.250043     0.250029  Biso 1.000000     C
    C   1.0     0.564210     0.750049     0.250027  Biso 1.000000     C
    C   1.0     0.142617     0.250028     0.749917  Biso 1.000000     C
    C   1.0     0.142616     0.750042     0.749913  Biso 1.000000     C
    C   1.0     0.642618     0.250028     0.749916  Biso 1.000000     C
    C   1.0     0.642617     0.750040     0.749918  Biso 1.000000     C
    C   1.0     0.008112     0.249994     0.749968  Biso 1.000000     C
    C   1.0     0.008110     0.750003     0.749978  Biso 1.000000     C
    C   1.0     0.508112     0.249996     0.749966  Biso 1.000000     C
    C   1.0     0.508111     0.750004     0.749973  Biso 1.000000     C
    C   1.0     0.435764     0.249962     0.750060  Biso 1.000000     C
    C   1.0     0.435763     0.749971     0.750068  Biso 1.000000     C
    C   1.0     0.935765     0.249961     0.750065  Biso 1.000000     C
    C   1.0     0.935763     0.749970     0.750072  Biso 1.000000     C
    C   1.0     0.250054     0.357357     0.499868  Biso 1.000000     C
    C   1.0     0.250047     0.857367     0.499877  Biso 1.000000     C
    C   1.0     0.750060     0.357357     0.499868  Biso 1.000000     C
    C   1.0     0.750053     0.857368     0.499877  Biso 1.000000     C
    C   1.0     0.250074     0.491853     0.499905  Biso 1.000000     C
    C   1.0     0.250072     0.991863     0.499898  Biso 1.000000     C
    C   1.0     0.750083     0.491853     0.499903  Biso 1.000000     C
    C   1.0     0.750078     0.991864     0.499898  Biso 1.000000     C
    C   1.0     0.250040     0.064188     0.500018  Biso 1.000000     C
    C   1.0     0.250036     0.564198     0.500027  Biso 1.000000     C
    C   1.0     0.750044     0.064188     0.500020  Biso 1.000000     C
    C   1.0     0.750042     0.564198     0.500027  Biso 1.000000     C
    C   1.0     0.250042     0.142671     0.000141  Biso 1.000000     C
    C   1.0     0.250046     0.642680     0.000000  Biso 1.000000     C
    C   1.0     0.750038     0.142671     0.000140  Biso 1.000000     C
    C   1.0     0.750044     0.642681     0.000150  Biso 1.000000     C
    C   1.0     0.249971     0.008165     0.000080  Biso 1.000000     C
    C   1.0     0.249971     0.508176     0.000076  Biso 1.000000     C
    C   1.0     0.749977     0.008163     0.000000  Biso 1.000000     C
    C   1.0     0.749971     0.508174     0.000000  Biso 1.000000     C
    C   1.0     0.249939     0.435823     0.000000  Biso 1.000000     C
    C   1.0     0.249936     0.935833     0.000000  Biso 1.000000     C
    C   1.0     0.749936     0.435825    -0.000022  Biso 1.000000     C
    C   1.0     0.749937     0.935834    -0.000011  Biso 1.000000     C
    O   1.0     0.380948     0.292034     0.003011  Biso 1.000000     O
    O   1.0     0.380947     0.792050     0.003014  Biso 1.000000     O
    O   1.0     0.880949     0.292035     0.003015  Biso 1.000000     O
    O   1.0     0.880948     0.792052     0.003015  Biso 1.000000     O
    O   1.0     0.291909     0.297204     0.091653  Biso 1.000000     O
    O   1.0     0.291908     0.797216     0.091658  Biso 1.000000     O
    O   1.0     0.791908     0.297204     0.091655  Biso 1.000000     O
    O   1.0     0.791909     0.797217     0.091658  Biso 1.000000     O
    O   1.0     0.092337     0.207894     0.301301  Biso 1.000000     O
    O   1.0     0.092337     0.707903     0.301308  Biso 1.000000     O
    O   1.0     0.592339     0.207893     0.301305  Biso 1.000000     O
    O   1.0     0.592338     0.707903     0.301310  Biso 1.000000     O
    O   1.0     0.118991     0.207997     0.502831  Biso 1.000000     O
    O   1.0     0.118990     0.708015     0.502833  Biso 1.000000     O
    O   1.0     0.618992     0.207999     0.502830  Biso 1.000000     O
    O   1.0     0.618990     0.708009     0.502835  Biso 1.000000     O
    O   1.0     0.208010     0.202817     0.591607  Biso 1.000000     O
    O   1.0     0.208009     0.702830     0.591607  Biso 1.000000     O
    O   1.0     0.708012     0.202818     0.591606  Biso 1.000000     O
    O   1.0     0.708010     0.702828     0.591607  Biso 1.000000     O
    O   1.0     0.407686     0.292108     0.801345  Biso 1.000000     O
    O   1.0     0.407685     0.792120     0.801346  Biso 1.000000     O
    O   1.0     0.907688     0.292106     0.801351  Biso 1.000000     O
    O   1.0     0.907685     0.792124     0.801341  Biso 1.000000     O
    O   1.0     0.207934     0.381020     0.252762  Biso 1.000000     O
    O   1.0     0.207921     0.881032     0.252764  Biso 1.000000     O
    O   1.0     0.707935     0.381020     0.252762  Biso 1.000000     O
    O   1.0     0.707925     0.881031     0.252767  Biso 1.000000     O
    O   1.0     0.202803     0.292026     0.341593  Biso 1.000000     O
    O   1.0     0.202798     0.792037     0.341592  Biso 1.000000     O
    O   1.0     0.702804     0.292027     0.341593  Biso 1.000000     O
    O   1.0     0.702799     0.792037     0.341593  Biso 1.000000     O
    O   1.0     0.292136     0.092222     0.551411  Biso 1.000000     O
    O   1.0     0.292138     0.592232     0.551408  Biso 1.000000     O
    O   1.0     0.792139     0.092223     0.551413  Biso 1.000000     O
    O   1.0     0.792142     0.592233     0.551411  Biso 1.000000     O
    O   1.0     0.292017     0.119028     0.753064  Biso 1.000000     O
    O   1.0     0.292022     0.619038     0.753067  Biso 1.000000     O
    O   1.0     0.792014     0.119028     0.753067  Biso 1.000000     O
    O   1.0     0.792019     0.619039     0.753068  Biso 1.000000     O
    O   1.0     0.297201     0.208059     0.841703  Biso 1.000000     O
    O   1.0     0.297202     0.708069     0.841707  Biso 1.000000     O
    O   1.0     0.797200     0.208059     0.841704  Biso 1.000000     O
    O   1.0     0.797202     0.708069     0.841707  Biso 1.000000     O
    O   1.0     0.207777     0.407744     0.051178  Biso 1.000000     O
    O   1.0     0.207771     0.907754     0.051178  Biso 1.000000     O
    O   1.0     0.707774     0.407744     0.051176  Biso 1.000000     O
    O   1.0     0.707769     0.907754     0.051175  Biso 1.000000     O
    O   1.0     0.118998     0.292036     0.997019  Biso 1.000000     O
    O   1.0     0.118996     0.792054     0.997022  Biso 1.000000     O
    O   1.0     0.618998     0.292039     0.997019  Biso 1.000000     O
    O   1.0     0.618997     0.792048     0.997023  Biso 1.000000     O
    O   1.0     0.208017     0.297210     0.908352  Biso 1.000000     O
    O   1.0     0.208014     0.797223     0.908352  Biso 1.000000     O
    O   1.0     0.708017     0.297210     0.908352  Biso 1.000000     O
    O   1.0     0.708016     0.797221     0.908354  Biso 1.000000     O
    O   1.0     0.407691     0.207795     0.698868  Biso 1.000000     O
    O   1.0     0.407689     0.707808     0.698869  Biso 1.000000     O
    O   1.0     0.907691     0.207793     0.698875  Biso 1.000000     O
    O   1.0     0.907690     0.707811     0.698865  Biso 1.000000     O
    O   1.0     0.381024     0.207917     0.497276  Biso 1.000000     O
    O   1.0     0.381021     0.707933     0.497281  Biso 1.000000     O
    O   1.0     0.881024     0.207921     0.497281  Biso 1.000000     O
    O   1.0     0.881021     0.707937     0.497282  Biso 1.000000     O
    O   1.0     0.292034     0.202800     0.408442  Biso 1.000000     O
    O   1.0     0.292031     0.702813     0.408445  Biso 1.000000     O
    O   1.0     0.792036     0.202800     0.408443  Biso 1.000000     O
    O   1.0     0.792032     0.702813     0.408445  Biso 1.000000     O
    O   1.0     0.092242     0.292164     0.198671  Biso 1.000000     O
    O   1.0     0.092238     0.792172     0.198676  Biso 1.000000     O
    O   1.0     0.592242     0.292162     0.198673  Biso 1.000000     O
    O   1.0     0.592240     0.792172     0.198678  Biso 1.000000     O
    O   1.0     0.292020     0.380940     0.747016  Biso 1.000000     O
    O   1.0     0.292012     0.880950     0.747019  Biso 1.000000     O
    O   1.0     0.792023     0.380940     0.747017  Biso 1.000000     O
    O   1.0     0.792012     0.880950     0.747018  Biso 1.000000     O
    O   1.0     0.297190     0.291900     0.658370  Biso 1.000000     O
    O   1.0     0.297184     0.791910     0.658373  Biso 1.000000     O
    O   1.0     0.797191     0.291900     0.658371  Biso 1.000000     O
    O   1.0     0.797185     0.791909     0.658374  Biso 1.000000     O
    O   1.0     0.207885     0.092316     0.448751  Biso 1.000000     O
    O   1.0     0.207887     0.592327     0.448749  Biso 1.000000     O
    O   1.0     0.707888     0.092317     0.448755  Biso 1.000000     O
    O   1.0     0.707891     0.592326     0.448752  Biso 1.000000     O
    O   1.0     0.207994     0.119036     0.247212  Biso 1.000000     O
    O   1.0     0.207998     0.619048     0.247216  Biso 1.000000     O
    O   1.0     0.707991     0.119037     0.247215  Biso 1.000000     O
    O   1.0     0.707996     0.619048     0.247217  Biso 1.000000     O
    O   1.0     0.202809     0.208054     0.158424  Biso 1.000000     O
    O   1.0     0.202809     0.708064     0.158424  Biso 1.000000     O
    O   1.0     0.702808     0.208054     0.158425  Biso 1.000000     O
    O   1.0     0.702809     0.708064     0.158424  Biso 1.000000     O
    O   1.0     0.292082     0.407744     0.948713  Biso 1.000000     O
    O   1.0     0.292077     0.907754     0.948714  Biso 1.000000     O
    O   1.0     0.792080     0.407744     0.948713  Biso 1.000000     O
    O   1.0     0.792074     0.907754     0.948710  Biso 1.000000     O
    Y   1.0     0.312697     0.312731     0.875047  Biso 1.000000     Y
    Y   1.0     0.312695     0.812744     0.875047  Biso 1.000000     Y
    Y   1.0     0.812697     0.312731     0.875050  Biso 1.000000     Y
    Y   1.0     0.812695     0.812744     0.875047  Biso 1.000000     Y
    Y   1.0     0.187337     0.187337     0.375040  Biso 1.000000     Y
    Y   1.0     0.187336     0.687349     0.375044  Biso 1.000000     Y
    Y   1.0     0.687339     0.187338     0.375043  Biso 1.000000     Y
    Y   1.0     0.687337     0.687348     0.375047  Biso 1.000000     Y
    Y   1.0     0.187214     0.312737     0.124933  Biso 1.000000     Y
    Y   1.0     0.187211     0.812748     0.124937  Biso 1.000000     Y
    Y   1.0     0.687213     0.312737     0.124934  Biso 1.000000     Y
    Y   1.0     0.687212     0.812748     0.124937  Biso 1.000000     Y
    Y   1.0     0.312704     0.187214     0.625097  Biso 1.000000     Y
    Y   1.0     0.312703     0.687227     0.625098  Biso 1.000000     Y
    Y   1.0     0.812705     0.187214     0.625103  Biso 1.000000     Y
    Y   1.0     0.812703     0.687227     0.625100  Biso 1.000000     Y
