#======================================================================

# CRYSTAL DATA

#----------------------------------------------------------------------

data_VESTA_phase_1


_pd_phase_name                         MOF
_cell_length_a                         23.03800
_cell_length_b                         15.24200
_cell_length_c                         18.18300
_cell_angle_alpha                      90.02400
_cell_angle_beta                       90.00000
_cell_angle_gamma                      90.09600
_symmetry_space_group_name_H-M         "P 1"
_symmetry_Int_Tables_number            1

loop_
_symmetry_equiv_pos_as_xyz
   "x, y, z"

loop_
   _atom_site_label
   _atom_site_occupancy
   _atom_site_fract_x
   _atom_site_fract_y
   _atom_site_fract_z
   _atom_site_adp_type
   _atom_site_B_iso_or_equiv
   _atom_site_type_symbol
    H   1.0     0.000024     0.296834     0.481040  Biso 1.000000     H
    H   1.0     0.500025     0.296834     0.481040  Biso 1.000000     H
    H   1.0     0.293328     0.431701     0.154608  Biso 1.000000     H
    H   1.0     0.793324     0.431701     0.154609  Biso 1.000000     H
    H   1.0     0.000025     0.796877     0.018896  Biso 1.000000     H
    H   1.0     0.500013     0.796877     0.018896  Biso 1.000000     H
    H   1.0     0.099189     0.935669     0.351166  Biso 1.000000     H
    H   1.0     0.599185     0.935670     0.351167  Biso 1.000000     H
    H   1.0     0.400672     0.173343     0.460096  Biso 1.000000     H
    H   1.0     0.900667     0.173344     0.460095  Biso 1.000000     H
    H   1.0     0.099443     0.064358     0.648767  Biso 1.000000     H
    H   1.0     0.599438     0.064358     0.648768  Biso 1.000000     H
    H   1.0     0.099174     0.435770     0.148774  Biso 1.000000     H
    H   1.0     0.599169     0.435770     0.148774  Biso 1.000000     H
    H   1.0     0.206839     0.681062     0.040146  Biso 1.000000     H
    H   1.0     0.706834     0.681062     0.040147  Biso 1.000000     H
    H   1.0    -0.000029     0.804795     0.297451  Biso 1.000000     H
    H   1.0     0.499963     0.804795     0.297451  Biso 1.000000     H
    H   1.0     0.206827     0.181067     0.459847  Biso 1.000000     H
    H   1.0     0.706822     0.181068     0.459846  Biso 1.000000     H
    H   1.0     0.400547     0.935646     0.351210  Biso 1.000000     H
    H   1.0     0.900543     0.935647     0.351210  Biso 1.000000     H
    H   1.0     0.293163     0.818937     0.540132  Biso 1.000000     H
    H   1.0     0.793159     0.818938     0.540131  Biso 1.000000     H
    H   1.0     0.400383     0.326673     0.960135  Biso 1.000000     H
    H   1.0     0.900378     0.326673     0.960134  Biso 1.000000     H
    H   1.0     0.293590     0.568299     0.845355  Biso 1.000000     H
    H   1.0     0.793585     0.568299     0.845356  Biso 1.000000     H
    H   1.0     0.400397     0.826670     0.539878  Biso 1.000000     H
    H   1.0     0.900392     0.826670     0.539879  Biso 1.000000     H
    H   1.0     0.206401     0.431705     0.154622  Biso 1.000000     H
    H   1.0     0.706396     0.431705     0.154622  Biso 1.000000     H
    H   1.0     0.099607     0.673332     0.039844  Biso 1.000000     H
    H   1.0     0.599602     0.673331     0.039844  Biso 1.000000     H
    H   1.0     0.206547     0.318930     0.959818  Biso 1.000000     H
    H   1.0     0.706542     0.318931     0.959820  Biso 1.000000     H
    H   1.0     0.206532     0.818924     0.540145  Biso 1.000000     H
    H   1.0     0.706527     0.818925     0.540144  Biso 1.000000     H
    H   1.0     0.400568     0.435746     0.148731  Biso 1.000000     H
    H   1.0     0.900563     0.435746     0.148731  Biso 1.000000     H
    H   1.0     0.000021     0.695062     0.797386  Biso 1.000000     H
    H   1.0     0.500006     0.695062     0.797386  Biso 1.000000     H
    H   1.0     0.099319     0.826662     0.539882  Biso 1.000000     H
    H   1.0     0.599314     0.826662     0.539882  Biso 1.000000     H
    H   1.0     0.293152     0.318942     0.959831  Biso 1.000000     H
    H   1.0     0.793147     0.318943     0.959833  Biso 1.000000     H
    H   1.0     0.099336     0.326665     0.960129  Biso 1.000000     H
    H   1.0     0.599332     0.326665     0.960128  Biso 1.000000     H
    H   1.0     0.293443     0.681074     0.040159  Biso 1.000000     H
    H   1.0     0.793439     0.681074     0.040159  Biso 1.000000     H
    H   1.0     0.206681     0.068393     0.654611  Biso 1.000000     H
    H   1.0     0.706677     0.068394     0.654609  Biso 1.000000     H
    H   1.0     0.206662     0.568304     0.845369  Biso 1.000000     H
    H   1.0     0.706657     0.568304     0.845371  Biso 1.000000     H
    H   1.0     0.000009     0.026597     0.167571  Biso 1.000000     H
    H   1.0     0.500012     0.026598     0.167571  Biso 1.000000     H
    H   1.0     0.293459     0.181079     0.459835  Biso 1.000000     H
    H   1.0     0.793454     0.181079     0.459836  Biso 1.000000     H
    H   1.0    -0.000035     0.703170     0.518938  Biso 1.000000     H
    H   1.0     0.499961     0.703170     0.518938  Biso 1.000000     H
    H   1.0     0.999960     0.203127     0.981082  Biso 1.000000     H
    H   1.0     0.499968     0.203127     0.981082  Biso 1.000000     H
    H   1.0    -0.000021     0.473525     0.667523  Biso 1.000000     H
    H   1.0     0.499986     0.473525     0.667523  Biso 1.000000     H
    H   1.0     0.400816     0.564235     0.851205  Biso 1.000000     H
    H   1.0     0.900811     0.564233     0.851204  Biso 1.000000     H
    H   1.0     0.400801     0.064335     0.648811  Biso 1.000000     H
    H   1.0     0.900796     0.064335     0.648812  Biso 1.000000     H
    H   1.0     0.099593     0.173334     0.460100  Biso 1.000000     H
    H   1.0     0.599589     0.173334     0.460100  Biso 1.000000     H
    H   1.0     0.000020     0.195209     0.702527  Biso 1.000000     H
    H   1.0     0.500023     0.195209     0.702527  Biso 1.000000     H
    H   1.0     0.999975     0.973407     0.832407  Biso 1.000000     H
    H   1.0     0.499970     0.973407     0.832407  Biso 1.000000     H
    H   1.0     0.206415     0.931614     0.345355  Biso 1.000000     H
    H   1.0     0.706410     0.931615     0.345354  Biso 1.000000     H
    H   1.0     0.000007     0.526479     0.332455  Biso 1.000000     H
    H   1.0     0.500000     0.526479     0.332455  Biso 1.000000     H
    H   1.0     0.400654     0.673340     0.039849  Biso 1.000000     H
    H   1.0     0.900649     0.673339     0.039849  Biso 1.000000     H
    H   1.0     0.293309     0.931610     0.345369  Biso 1.000000     H
    H   1.0     0.793304     0.931610     0.345370  Biso 1.000000     H
    H   1.0    -0.000028     0.304942     0.202592  Biso 1.000000     H
    H   1.0     0.499973     0.304942     0.202591  Biso 1.000000     H
    H   1.0     0.293575     0.068389     0.654623  Biso 1.000000     H
    H   1.0     0.793570     0.068390     0.654623  Biso 1.000000     H
    H   1.0     0.099422     0.564260     0.851248  Biso 1.000000     H
    H   1.0     0.599418     0.564257     0.851247  Biso 1.000000     H
    C   1.0     0.125268     0.879017     0.564137  Biso 1.000000     C
    C   1.0     0.625264     0.879021     0.564131  Biso 1.000000     C
    C   1.0     0.999959     0.854464     0.442707  Biso 1.000000     C
    C   1.0     0.499953     0.854464     0.442707  Biso 1.000000     C
    C   1.0     0.000005     0.394678     0.568003  Biso 1.000000     C
    C   1.0     0.500012     0.394678     0.568003  Biso 1.000000     C
    C   1.0    -0.000016     0.164082     0.193021  Biso 1.000000     C
    C   1.0     0.499998     0.164082     0.193021  Biso 1.000000     C
    C   1.0    -0.000006     0.308428     0.540187  Biso 1.000000     C
    C   1.0     0.499995     0.308427     0.540187  Biso 1.000000     C
    C   1.0     0.374778     0.011669     0.625083  Biso 1.000000     C
    C   1.0     0.874773     0.011671     0.625080  Biso 1.000000     C
    C   1.0     0.125212     0.988334     0.374896  Biso 1.000000     C
    C   1.0     0.625207     0.988335     0.374896  Biso 1.000000     C
    C   1.0     0.314541     0.012944     0.627960  Biso 1.000000     C
    C   1.0     0.814536     0.012943     0.627962  Biso 1.000000     C
    C   1.0     0.314410     0.487120     0.127937  Biso 1.000000     C
    C   1.0     0.814405     0.487118     0.127934  Biso 1.000000     C
    C   1.0     0.314299     0.375560     0.935082  Biso 1.000000     C
    C   1.0     0.814294     0.375556     0.935077  Biso 1.000000     C
    C   1.0     0.125206     0.488409     0.125057  Biso 1.000000     C
    C   1.0     0.625201     0.488409     0.125057  Biso 1.000000     C
    C   1.0     0.000000     0.648533     0.224880  Biso 1.000000     C
    C   1.0     0.499999     0.648533     0.224880  Biso 1.000000     C
    C   1.0     0.000003     0.032060     0.020074  Biso 1.000000     C
    C   1.0     0.499995     0.032059     0.020074  Biso 1.000000     C
    C   1.0    -0.000003     0.691577     0.459791  Biso 1.000000     C
    C   1.0     0.499986     0.691577     0.459791  Biso 1.000000     C
    C   1.0     0.217791     0.055909     0.403261  Biso 1.000000     C
    C   1.0     0.717786     0.055907     0.403265  Biso 1.000000     C
    C   1.0     0.125429     0.120983     0.435841  Biso 1.000000     C
    C   1.0     0.625425     0.120983     0.435840  Biso 1.000000     C
    C   1.0    -0.000047     0.354458     0.057290  Biso 1.000000     C
    C   1.0     0.499962     0.354458     0.057290  Biso 1.000000     C
    C   1.0     0.374722     0.120983     0.435848  Biso 1.000000     C
    C   1.0     0.874717     0.120983     0.435849  Biso 1.000000     C
    C   1.0    -0.000019     0.605326     0.431975  Biso 1.000000     C
    C   1.0     0.499978     0.605326     0.431975  Biso 1.000000     C
    C   1.0    -0.000001     0.749402     0.335269  Biso 1.000000     C
    C   1.0     0.499987     0.749401     0.335269  Biso 1.000000     C
    C   1.0     0.185449     0.987060     0.372018  Biso 1.000000     C
    C   1.0     0.685445     0.987061     0.372016  Biso 1.000000     C
    C   1.0     0.125278     0.378998     0.935864  Biso 1.000000     C
    C   1.0     0.625274     0.379004     0.935872  Biso 1.000000     C
    C   1.0    -0.000009     0.467942     0.520042  Biso 1.000000     C
    C   1.0     0.499992     0.467942     0.520042  Biso 1.000000     C
    C   1.0    -0.000014     0.105351     0.068050  Biso 1.000000     C
    C   1.0     0.499990     0.105352     0.068050  Biso 1.000000     C
    C   1.0     0.185518     0.875575     0.564892  Biso 1.000000     C
    C   1.0     0.685513     0.875572     0.564897  Biso 1.000000     C
    C   1.0     0.282217     0.055904     0.403270  Biso 1.000000     C
    C   1.0     0.782212     0.055907     0.403266  Biso 1.000000     C
    C   1.0     0.999945     0.763201     0.411562  Biso 1.000000     C
    C   1.0     0.499952     0.763201     0.411562  Biso 1.000000     C
    C   1.0     0.217775     0.444053     0.903257  Biso 1.000000     C
    C   1.0     0.717770     0.444057     0.903264  Biso 1.000000     C
    C   1.0     0.000030     0.145540     0.557271  Biso 1.000000     C
    C   1.0     0.500029     0.145540     0.557271  Biso 1.000000     C
    C   1.0     0.185580     0.512886     0.872043  Biso 1.000000     C
    C   1.0     0.685576     0.512881     0.872036  Biso 1.000000     C
    C   1.0     0.000016     0.645547     0.942688  Biso 1.000000     C
    C   1.0     0.500048     0.645547     0.942688  Biso 1.000000     C
    C   1.0     0.000000     0.092657     0.144854  Biso 1.000000     C
    C   1.0     0.500007     0.092657     0.144854  Biso 1.000000     C
    C   1.0     0.185692     0.624448     0.064900  Biso 1.000000     C
    C   1.0     0.685687     0.624448     0.064902  Biso 1.000000     C
    C   1.0     0.217772     0.944094     0.596717  Biso 1.000000     C
    C   1.0     0.717768     0.944098     0.596712  Biso 1.000000     C
    C   1.0    -0.000010     0.249509     0.164774  Biso 1.000000     C
    C   1.0     0.499992     0.249509     0.164774  Biso 1.000000     C
    C   1.0     0.000009     0.592565     0.355166  Biso 1.000000     C
    C   1.0     0.500005     0.592565     0.355166  Biso 1.000000     C
    C   1.0    -0.000014     0.907347     0.855123  Biso 1.000000     C
    C   1.0     0.499999     0.907347     0.855123  Biso 1.000000     C
    C   1.0    -0.000007     0.532062     0.479936  Biso 1.000000     C
    C   1.0     0.499993     0.532062     0.479936  Biso 1.000000     C
    C   1.0     0.217789     0.555951     0.096722  Biso 1.000000     C
    C   1.0     0.717785     0.555949     0.096719  Biso 1.000000     C
    C   1.0    -0.000021     0.407440     0.644812  Biso 1.000000     C
    C   1.0     0.499977     0.407440     0.644812  Biso 1.000000     C
    C   1.0     0.314463     0.624450     0.064900  Biso 1.000000     C
    C   1.0     0.814459     0.624447     0.064897  Biso 1.000000     C
    C   1.0     0.314547     0.512878     0.872028  Biso 1.000000     C
    C   1.0     0.814542     0.512874     0.872023  Biso 1.000000     C
    C   1.0     0.999998     0.894653     0.931928  Biso 1.000000     C
    C   1.0     0.499969     0.894653     0.931928  Biso 1.000000     C
    C   1.0    -0.000001     0.967945     0.979903  Biso 1.000000     C
    C   1.0     0.499993     0.967945     0.979903  Biso 1.000000     C
    C   1.0    -0.000009     0.663958     0.307013  Biso 1.000000     C
    C   1.0     0.499976     0.663958     0.307013  Biso 1.000000     C
    C   1.0     0.000000     0.236803     0.588416  Biso 1.000000     C
    C   1.0     0.500037     0.236803     0.588416  Biso 1.000000     C
    C   1.0     0.314472     0.124434     0.435078  Biso 1.000000     C
    C   1.0     0.814468     0.124433     0.435081  Biso 1.000000     C
    C   1.0     0.374650     0.488393     0.125027  Biso 1.000000     C
    C   1.0     0.874646     0.488393     0.125028  Biso 1.000000     C
    C   1.0     0.282199     0.944097     0.596715  Biso 1.000000     C
    C   1.0     0.782194     0.944098     0.596714  Biso 1.000000     C
    C   1.0     0.282201     0.444050     0.903251  Biso 1.000000     C
    C   1.0     0.782196     0.444052     0.903255  Biso 1.000000     C
    C   1.0     0.000006     0.148658     0.275149  Biso 1.000000     C
    C   1.0     0.499995     0.148658     0.275149  Biso 1.000000     C
    C   1.0     0.999986     0.336046     0.692965  Biso 1.000000     C
    C   1.0     0.500012     0.336046     0.692965  Biso 1.000000     C
    C   1.0     0.185444     0.487129     0.127954  Biso 1.000000     C
    C   1.0     0.685439     0.487130     0.127956  Biso 1.000000     C
    C   1.0     0.374561     0.879020     0.564139  Biso 1.000000     C
    C   1.0     0.874556     0.879023     0.564135  Biso 1.000000     C
    C   1.0     0.999982     0.191576     0.040248  Biso 1.000000     C
    C   1.0     0.499993     0.191577     0.040248  Biso 1.000000     C
    C   1.0     0.185591     0.012955     0.627939  Biso 1.000000     C
    C   1.0     0.685587     0.012952     0.627944  Biso 1.000000     C
    C   1.0     0.374712     0.621004     0.064111  Biso 1.000000     C
    C   1.0     0.874708     0.621005     0.064112  Biso 1.000000     C
    C   1.0    -0.000001     0.250603     0.664709  Biso 1.000000     C
    C   1.0     0.499994     0.250603     0.664709  Biso 1.000000     C
    C   1.0    -0.000001     0.835922     0.806957  Biso 1.000000     C
    C   1.0     0.499970     0.835922     0.806957  Biso 1.000000     C
    C   1.0     0.185686     0.124429     0.435082  Biso 1.000000     C
    C   1.0     0.685682     0.124431     0.435080  Biso 1.000000     C
    C   1.0     0.125435     0.621003     0.064116  Biso 1.000000     C
    C   1.0     0.625430     0.621003     0.064116  Biso 1.000000     C
    C   1.0     0.000039     0.736762     0.911501  Biso 1.000000     C
    C   1.0     0.499997     0.736762     0.911501  Biso 1.000000     C
    C   1.0    -0.000035     0.263242     0.088477  Biso 1.000000     C
    C   1.0     0.499964     0.263242     0.088477  Biso 1.000000     C
    C   1.0     0.282215     0.555951     0.096720  Biso 1.000000     C
    C   1.0     0.782211     0.555954     0.096725  Biso 1.000000     C
    C   1.0     0.314304     0.875575     0.564897  Biso 1.000000     C
    C   1.0     0.814299     0.875574     0.564899  Biso 1.000000     C
    C   1.0     0.374639     0.988317     0.374928  Biso 1.000000     C
    C   1.0     0.874634     0.988317     0.374930  Biso 1.000000     C
    C   1.0     0.374784     0.511593     0.874916  Biso 1.000000     C
    C   1.0     0.874779     0.511596     0.874924  Biso 1.000000     C
    C   1.0     0.125351     0.011682     0.625056  Biso 1.000000     C
    C   1.0     0.625346     0.011686     0.625051  Biso 1.000000     C
    C   1.0     0.999980     0.750495     0.835204  Biso 1.000000     C
    C   1.0     0.500017     0.750495     0.835204  Biso 1.000000     C
    C   1.0     0.314399     0.987054     0.372032  Biso 1.000000     C
    C   1.0     0.814394     0.987053     0.372034  Biso 1.000000     C
    C   1.0     0.185527     0.375556     0.935079  Biso 1.000000     C
    C   1.0     0.685522     0.375551     0.935073  Biso 1.000000     C
    C   1.0     0.125340     0.511611     0.874948  Biso 1.000000     C
    C   1.0     0.625335     0.511614     0.874956  Biso 1.000000     C
    C   1.0     0.374556     0.378998     0.935858  Biso 1.000000     C
    C   1.0     0.874551     0.379003     0.935865  Biso 1.000000     C
    C   1.0    -0.000004     0.351471     0.775098  Biso 1.000000     C
    C   1.0     0.499985     0.351471     0.775098  Biso 1.000000     C
    C   1.0    -0.000007     0.808428     0.959730  Biso 1.000000     C
    C   1.0     0.500022     0.808428     0.959730  Biso 1.000000     C
    C   1.0    -0.000007     0.851346     0.724829  Biso 1.000000     C
    C   1.0     0.499998     0.851346     0.724829  Biso 1.000000     C
    N   1.0     0.404805     0.946441     0.592828  Biso 1.000000     N
    N   1.0     0.904801     0.946439     0.592830  Biso 1.000000     N
    N   1.0     0.404809     0.446394     0.907190  Biso 1.000000     N
    N   1.0     0.904805     0.446391     0.907186  Biso 1.000000     N
    N   1.0     0.095172     0.946457     0.592795  Biso 1.000000     N
    N   1.0     0.595167     0.946455     0.592799  Biso 1.000000     N
    N   1.0     0.095173     0.446409     0.907217  Biso 1.000000     N
    N   1.0     0.595167     0.446405     0.907213  Biso 1.000000     N
    N   1.0     0.404817     0.553597     0.092762  Biso 1.000000     N
    N   1.0     0.904813     0.553595     0.092759  Biso 1.000000     N
    N   1.0     0.095185     0.053563     0.407150  Biso 1.000000     N
    N   1.0     0.595180     0.053566     0.407147  Biso 1.000000     N
    N   1.0     0.095181     0.553613     0.092792  Biso 1.000000     N
    N   1.0     0.595176     0.553613     0.092792  Biso 1.000000     N
    N   1.0     0.404818     0.053550     0.407178  Biso 1.000000     N
    N   1.0     0.904813     0.053550     0.407179  Biso 1.000000     N
    O   1.0     0.000000     0.788412     0.681024  Biso 1.000000     O
    O   1.0     0.499984     0.788412     0.681024  Biso 1.000000     O
    O   1.0    -0.000007     0.433773     0.794051  Biso 1.000000     O
    O   1.0     0.499993     0.433773     0.794051  Biso 1.000000     O
    O   1.0     0.000001     0.066348     0.294047  Biso 1.000000     O
    O   1.0     0.499999     0.066348     0.294047  Biso 1.000000     O
    O   1.0     0.000057     0.139417     0.487474  Biso 1.000000     O
    O   1.0     0.500052     0.139417     0.487474  Biso 1.000000     O
    O   1.0    -0.000068     0.917836     0.397188  Biso 1.000000     O
    O   1.0     0.499932     0.917836     0.397189  Biso 1.000000     O
    O   1.0    -0.000000     0.566231     0.205927  Biso 1.000000     O
    O   1.0     0.499993     0.566231     0.205927  Biso 1.000000     O
    O   1.0    -0.000008     0.933656     0.705931  Biso 1.000000     O
    O   1.0     0.499984     0.933656     0.705931  Biso 1.000000     O
    O   1.0    -0.000058     0.417889     0.102792  Biso 1.000000     O
    O   1.0     0.499934     0.417889     0.102791  Biso 1.000000     O
    O   1.0    -0.000002     0.288543     0.818873  Biso 1.000000     O
    O   1.0     0.499997     0.288543     0.818873  Biso 1.000000     O
    O   1.0     0.000059     0.639523     0.012512  Biso 1.000000     O
    O   1.0     0.500039     0.639523     0.012512  Biso 1.000000     O
    O   1.0    -0.000065     0.860587     0.512504  Biso 1.000000     O
    O   1.0     0.499935     0.860587     0.512504  Biso 1.000000     O
    O   1.0     0.000061     0.582115     0.897187  Biso 1.000000     O
    O   1.0     0.500042     0.582115     0.897187  Biso 1.000000     O
    O   1.0     0.000060     0.082168     0.602790  Biso 1.000000     O
    O   1.0     0.500055     0.082168     0.602790  Biso 1.000000     O
    O   1.0    -0.000054     0.360481     0.987466  Biso 1.000000     O
    O   1.0     0.499937     0.360481     0.987466  Biso 1.000000     O
    O   1.0     0.999990     0.211592     0.318954  Biso 1.000000     O
    O   1.0     0.499995     0.211593     0.318954  Biso 1.000000     O
    O   1.0    -0.000006     0.711461     0.181105  Biso 1.000000     O
    O   1.0     0.499990     0.711461     0.181105  Biso 1.000000     O
   Zn   1.0     0.000000     0.052144     0.402911  Biso 1.000000    Zn
   Zn   1.0     0.499995     0.052144     0.402910  Biso 1.000000    Zn
   Zn   1.0    -0.000002     0.552186     0.097039  Biso 1.000000    Zn
   Zn   1.0     0.499993     0.552186     0.097039  Biso 1.000000    Zn
   Zn   1.0    -0.000001     0.447818     0.902939  Biso 1.000000    Zn
   Zn   1.0     0.499991     0.447818     0.902939  Biso 1.000000    Zn
   Zn   1.0    -0.000005     0.947860     0.597068  Biso 1.000000    Zn
   Zn   1.0     0.499990     0.947860     0.597068  Biso 1.000000    Zn
