#======================================================================

# CRYSTAL DATA

#----------------------------------------------------------------------

data_VESTA_phase_1


_pd_phase_name                         MOF
_cell_length_a                         12.35000
_cell_length_b                         23.12200
_cell_length_c                         13.04100
_cell_angle_alpha                      89.94800
_cell_angle_beta                       90.12300
_cell_angle_gamma                      90.00900
_symmetry_space_group_name_H-M         "P 1"
_symmetry_Int_Tables_number            1

loop_
_symmetry_equiv_pos_as_xyz
   "x, y, z"

loop_
   _atom_site_label
   _atom_site_occupancy
   _atom_site_fract_x
   _atom_site_fract_y
   _atom_site_fract_z
   _atom_site_adp_type
   _atom_site_B_iso_or_equiv
   _atom_site_type_symbol
    H   1.0     0.885397     0.683992     0.354757  Biso 1.000000     H
    H   1.0     0.820556     0.624556     0.289535  Biso 1.000000     H
    H   1.0     0.397703     0.822983     0.032925  Biso 1.000000     H
    H   1.0     0.326304     0.878302     0.098701  Biso 1.000000     H
    H   1.0     0.072489     0.557379     0.206953  Biso 1.000000     H
    H   1.0     0.927825     0.553195     0.202956  Biso 1.000000     H
    H   1.0     0.076672     0.690323     0.360115  Biso 1.000000     H
    H   1.0     0.158877     0.635871     0.300163  Biso 1.000000     H
    H   1.0    -0.018006     0.755399     0.123049  Biso 1.000000     H
    H   1.0    -0.023361     0.757236     0.262185  Biso 1.000000     H
    H   1.0     0.589902     0.816782     0.041088  Biso 1.000000     H
    H   1.0     0.665163     0.869303     0.114952  Biso 1.000000     H
    H   1.0     0.130493    -0.050223     0.032687  Biso 1.000000     H
    H   1.0     0.118729     0.995470     0.924568  Biso 1.000000     H
    H   1.0     0.117040     0.026222     0.000000  Biso 1.000000     H
    H   1.0     0.616647     0.815678     0.854927  Biso 1.000000     H
    H   1.0     0.680535     0.875605     0.790235  Biso 1.000000     H
    H   1.0     0.105192     0.676590     0.533579  Biso 1.000000     H
    H   1.0     0.175035     0.621187     0.601095  Biso 1.000000     H
    H   1.0     0.427365     0.942569     0.709103  Biso 1.000000     H
    H   1.0     0.571924     0.947063     0.704877  Biso 1.000000     H
    H   1.0     0.425759     0.808867     0.860888  Biso 1.000000     H
    H   1.0     0.342445     0.863373     0.801898  Biso 1.000000     H
    H   1.0     0.518792     0.745232     0.622595  Biso 1.000000     H
    H   1.0     0.525481     0.742619     0.761668  Biso 1.000000     H
    H   1.0     0.912542     0.683389     0.538793  Biso 1.000000     H
    H   1.0     0.836095     0.631100     0.611680  Biso 1.000000     H
    H   1.0     0.375675     0.542704     0.522154  Biso 1.000000     H
    H   1.0     0.378328     0.501538     0.408018  Biso 1.000000     H
    H   1.0     0.385032     0.465708     0.530286  Biso 1.000000     H
    H   1.0     0.882999     0.316490     0.145952  Biso 1.000000     H
    H   1.0     0.818987     0.376110     0.211174  Biso 1.000000     H
    H   1.0     0.394470     0.176607     0.466360  Biso 1.000000     H
    H   1.0     0.324851     0.121263     0.398802  Biso 1.000000     H
    H   1.0     0.071730     0.443045     0.293062  Biso 1.000000     H
    H   1.0     0.927118     0.447303     0.297109  Biso 1.000000     H
    H   1.0     0.074151     0.309931     0.140030  Biso 1.000000     H
    H   1.0     0.157149     0.364319     0.199557  Biso 1.000000     H
    H   1.0    -0.018943     0.245235     0.377592  Biso 1.000000     H
    H   1.0    -0.025444     0.243248     0.238335  Biso 1.000000     H
    H   1.0     0.587502     0.183476     0.460981  Biso 1.000000     H
    H   1.0     0.663707     0.131207     0.388136  Biso 1.000000     H
    H   1.0     0.122120     0.000000     0.483413  Biso 1.000000     H
    H   1.0     0.122303     0.001553     0.599430  Biso 1.000000     H
    H   1.0     0.114019     0.964146     0.478784  Biso 1.000000     H
    H   1.0     0.616016     0.184226     0.645537  Biso 1.000000     H
    H   1.0     0.680010     0.124534     0.710938  Biso 1.000000     H
    H   1.0     0.103724     0.323045     0.967579  Biso 1.000000     H
    H   1.0     0.173875     0.378569     0.901021  Biso 1.000000     H
    H   1.0     0.427082     0.057771     0.792338  Biso 1.000000     H
    H   1.0     0.571650     0.053242     0.796988  Biso 1.000000     H
    H   1.0     0.424670     0.190905     0.639309  Biso 1.000000     H
    H   1.0     0.341828     0.136539     0.698909  Biso 1.000000     H
    H   1.0     0.518837     0.255478     0.876866  Biso 1.000000     H
    H   1.0     0.524992     0.257479     0.737746  Biso 1.000000     H
    H   1.0     0.911341     0.316258     0.960944  Biso 1.000000     H
    H   1.0     0.835005     0.368615     0.887611  Biso 1.000000     H
    H   1.0     0.366427     0.446143     0.961775  Biso 1.000000     H
    H   1.0     0.382218     0.494200     0.065980  Biso 1.000000     H
    H   1.0     0.381658     0.522037    -0.062586  Biso 1.000000     H
    H   1.0     0.115255     0.316269     0.646064  Biso 1.000000     H
    H   1.0     0.179762     0.375831     0.711209  Biso 1.000000     H
    H   1.0     0.603777     0.177261     0.966993  Biso 1.000000     H
    H   1.0     0.673985     0.121781     0.900580  Biso 1.000000     H
    H   1.0     0.927027     0.442684     0.792911  Biso 1.000000     H
    H   1.0     0.071639     0.447160     0.797493  Biso 1.000000     H
    H   1.0     0.924350     0.309575     0.640167  Biso 1.000000     H
    H   1.0     0.841509     0.363960     0.699650  Biso 1.000000     H
    H   1.0     0.000000     0.244947     0.877775  Biso 1.000000     H
    H   1.0     0.000000     0.242954     0.738649  Biso 1.000000     H
    H   1.0     0.411583     0.184096     0.960177  Biso 1.000000     H
    H   1.0     0.335184     0.131808     0.886934  Biso 1.000000     H
    H   1.0     0.868078     0.000000     0.962204  Biso 1.000000     H
    H   1.0     0.884064     0.006073     0.066798  Biso 1.000000     H
    H   1.0     0.883254     0.978013    -0.061520  Biso 1.000000     H
    H   1.0     0.384118     0.184190     0.144850  Biso 1.000000     H
    H   1.0     0.319674     0.124395     0.209402  Biso 1.000000     H
    H   1.0     0.896182     0.323150     0.467325  Biso 1.000000     H
    H   1.0     0.825431     0.378642     0.400822  Biso 1.000000     H
    H   1.0     0.571969     0.057375     0.292705  Biso 1.000000     H
    H   1.0     0.427369     0.053034     0.295785  Biso 1.000000     H
    H   1.0     0.575233     0.190878     0.140182  Biso 1.000000     H
    H   1.0     0.657948     0.136427     0.200036  Biso 1.000000     H
    H   1.0     0.480458     0.255000     0.377395  Biso 1.000000     H
    H   1.0     0.474880     0.257271     0.238239  Biso 1.000000     H
    H   1.0     0.088231     0.316550     0.460777  Biso 1.000000     H
    H   1.0     0.164318     0.368999     0.387767  Biso 1.000000     H
    H   1.0     0.627655     0.455942     0.474605  Biso 1.000000     H
    H   1.0     0.621359     0.498004     0.587558  Biso 1.000000     H
    H   1.0     0.616995     0.532859     0.464328  Biso 1.000000     H
    H   1.0     0.115600     0.683918     0.855050  Biso 1.000000     H
    H   1.0     0.179923     0.624092     0.790628  Biso 1.000000     H
    H   1.0     0.603712     0.823750     0.533537  Biso 1.000000     H
    H   1.0     0.673791     0.879077     0.600790  Biso 1.000000     H
    H   1.0     0.927673     0.557219     0.707259  Biso 1.000000     H
    H   1.0     0.072332     0.552855     0.704391  Biso 1.000000     H
    H   1.0     0.924407     0.690647     0.859587  Biso 1.000000     H
    H   1.0     0.841674     0.636241     0.799744  Biso 1.000000     H
    H   1.0     0.000000     0.754816     0.622267  Biso 1.000000     H
    H   1.0     0.000000     0.757080     0.761503  Biso 1.000000     H
    H   1.0     0.411190     0.816692     0.540195  Biso 1.000000     H
    H   1.0     0.335073     0.868757     0.613732  Biso 1.000000     H
    H   1.0     0.874151    -0.040626     0.515165  Biso 1.000000     H
    H   1.0     0.872947     0.999316     0.399451  Biso 1.000000     H
    H   1.0     0.881498     0.036446     0.520346  Biso 1.000000     H
    H   1.0     0.383103     0.816083     0.354271  Biso 1.000000     H
    H   1.0     0.318826     0.875532     0.288413  Biso 1.000000     H
    H   1.0     0.896065     0.677581     0.033240  Biso 1.000000     H
    H   1.0     0.825588     0.622147     0.099769  Biso 1.000000     H
    H   1.0     0.571736     0.943031     0.208808  Biso 1.000000     H
    H   1.0     0.427152     0.947163     0.203067  Biso 1.000000     H
    H   1.0     0.574210     0.809900     0.361745  Biso 1.000000     H
    H   1.0     0.657018     0.864563     0.302851  Biso 1.000000     H
    H   1.0     0.482687     0.745120     0.123560  Biso 1.000000     H
    H   1.0     0.475545     0.743078     0.262700  Biso 1.000000     H
    H   1.0     0.088411     0.683922     0.039249  Biso 1.000000     H
    H   1.0     0.164639     0.631356     0.112223  Biso 1.000000     H
    H   1.0     0.629534     0.551815     0.039849  Biso 1.000000     H
    H   1.0     0.615338     0.505119     0.933479  Biso 1.000000     H
    H   1.0     0.616407     0.475528     0.000000  Biso 1.000000     H
    H   1.0     0.346379     0.674654     0.302436  Biso 1.000000     H
    H   1.0     0.328221     0.613897     0.386098  Biso 1.000000     H
    H   1.0     0.461096     0.637420     0.349862  Biso 1.000000     H
    H   1.0     0.153287     0.825683     0.800625  Biso 1.000000     H
    H   1.0     0.172229     0.886230     0.884531  Biso 1.000000     H
    H   1.0     0.039016     0.863077    -0.151869  Biso 1.000000     H
    H   1.0     0.344426     0.325144     0.198946  Biso 1.000000     H
    H   1.0     0.327395     0.386075     0.115383  Biso 1.000000     H
    H   1.0     0.459831     0.362388     0.000000  Biso 1.000000     H
    H   1.0     0.154437     0.175669     0.699377  Biso 1.000000     H
    H   1.0     0.170554     0.114816     0.616056  Biso 1.000000     H
    H   1.0     0.038344     0.139049     0.653454  Biso 1.000000     H
    H   1.0     0.651748     0.326428     0.698507  Biso 1.000000     H
    H   1.0     0.672205     0.387160     0.615142  Biso 1.000000     H
    H   1.0     0.538472     0.363921     0.648581  Biso 1.000000     H
    H   1.0     0.846642     0.174544     0.199498  Biso 1.000000     H
    H   1.0     0.827512     0.113937     0.115720  Biso 1.000000     H
    H   1.0     0.960782     0.137024     0.000000  Biso 1.000000     H
    H   1.0     0.654512     0.675159     0.804631  Biso 1.000000     H
    H   1.0     0.672777     0.614230     0.888020  Biso 1.000000     H
    H   1.0     0.539863     0.637556    -0.149114  Biso 1.000000     H
    H   1.0     0.845549     0.824946     0.299951  Biso 1.000000     H
    H   1.0     0.829651     0.886204     0.382469  Biso 1.000000     H
    H   1.0     0.961756     0.861256     0.346467  Biso 1.000000     H
    C   1.0     0.387918     0.845683     0.288630  Biso 1.000000     C
    C   1.0     0.396628     0.849541     0.102418  Biso 1.000000     C
    C   1.0    -0.002572     0.582773     0.203349  Biso 1.000000     C
    C   1.0     0.083714     0.660897     0.294539  Biso 1.000000     C
    C   1.0     0.481196     0.770638     0.194449  Biso 1.000000     C
    C   1.0     0.590155     0.843918     0.110210  Biso 1.000000     C
    C   1.0     0.275035    -0.002738    -0.000864  Biso 1.000000     C
    C   1.0     0.152431    -0.007387     0.002373  Biso 1.000000     C
    C   1.0     0.111289     0.654230     0.789594  Biso 1.000000     C
    C   1.0     0.104959     0.650169     0.603336  Biso 1.000000     C
    C   1.0     0.502559     0.917335     0.705016  Biso 1.000000     C
    C   1.0     0.417803     0.838585     0.795699  Biso 1.000000     C
    C   1.0     0.000000     0.729423     0.693406  Biso 1.000000     C
    C   1.0     0.911336     0.656324     0.608058  Biso 1.000000     C
    C   1.0     0.226346     0.499360     0.490015  Biso 1.000000     C
    C   1.0     0.349202     0.501711     0.487454  Biso 1.000000     C
    C   1.0     0.388409     0.154480     0.210364  Biso 1.000000     C
    C   1.0     0.394885     0.150287     0.396588  Biso 1.000000     C
    C   1.0    -0.003358     0.417681     0.296781  Biso 1.000000     C
    C   1.0     0.081887     0.339405     0.205487  Biso 1.000000     C
    C   1.0     0.479993     0.229581     0.306375  Biso 1.000000     C
    C   1.0     0.588501     0.156440     0.391765  Biso 1.000000     C
    C   1.0     0.272826     0.999054     0.514940  Biso 1.000000     C
    C   1.0     0.149978     0.000000     0.519546  Biso 1.000000     C
    C   1.0     0.110912     0.345818     0.711714  Biso 1.000000     C
    C   1.0     0.103812     0.349610     0.897998  Biso 1.000000     C
    C   1.0     0.502336     0.082990     0.796325  Biso 1.000000     C
    C   1.0     0.417143     0.161420     0.704848  Biso 1.000000     C
    C   1.0     0.000000     0.270510     0.806835  Biso 1.000000     C
    C   1.0     0.910297     0.343445     0.891783  Biso 1.000000     C
    C   1.0     0.224202     0.495678     0.994841  Biso 1.000000     C
    C   1.0     0.346513     0.489846     0.989194  Biso 1.000000     C
    C   1.0     0.611264     0.154604     0.711149  Biso 1.000000     C
    C   1.0     0.603943     0.150748     0.897428  Biso 1.000000     C
    C   1.0     0.000000     0.417442     0.796906  Biso 1.000000     C
    C   1.0     0.916803     0.339069     0.705587  Biso 1.000000     C
    C   1.0     0.519485     0.229916     0.806007  Biso 1.000000     C
    C   1.0     0.410510     0.156955     0.891049  Biso 1.000000     C
    C   1.0     0.725949     0.000000     0.995975  Biso 1.000000     C
    C   1.0     0.848230     0.000000     0.990036  Biso 1.000000     C
    C   1.0     0.887739     0.346044     0.211579  Biso 1.000000     C
    C   1.0     0.895599     0.349757     0.397791  Biso 1.000000     C
    C   1.0     0.496836     0.082697     0.296017  Biso 1.000000     C
    C   1.0     0.582591     0.161265     0.205575  Biso 1.000000     C
    C   1.0    -0.019926     0.270752     0.306599  Biso 1.000000     C
    C   1.0     0.089111     0.343758     0.391663  Biso 1.000000     C
    C   1.0     0.775255     0.500362     0.508909  Biso 1.000000     C
    C   1.0     0.652427     0.497378     0.508792  Biso 1.000000     C
    C   1.0     0.611854     0.845481     0.789543  Biso 1.000000     C
    C   1.0     0.603865     0.849993     0.603398  Biso 1.000000     C
    C   1.0     0.000000     0.582515     0.703988  Biso 1.000000     C
    C   1.0     0.917071     0.661070     0.794230  Biso 1.000000     C
    C   1.0     0.519793     0.770486     0.693801  Biso 1.000000     C
    C   1.0     0.410379     0.843636     0.609549  Biso 1.000000     C
    C   1.0     0.722869     0.001153     0.484685  Biso 1.000000     C
    C   1.0     0.845703    -0.000253     0.479483  Biso 1.000000     C
    C   1.0     0.889527     0.654488     0.289039  Biso 1.000000     C
    C   1.0     0.895906     0.650930     0.102727  Biso 1.000000     C
    C   1.0     0.496758     0.917612     0.204230  Biso 1.000000     C
    C   1.0     0.582051     0.839432     0.296319  Biso 1.000000     C
    C   1.0    -0.018520     0.729747     0.193888  Biso 1.000000     C
    C   1.0     0.089513     0.656680     0.108339  Biso 1.000000     C
    C   1.0     0.773200     0.503952     0.004940  Biso 1.000000     C
    C   1.0     0.650725     0.508689     0.010510  Biso 1.000000     C
    C   1.0     0.383552     0.693451     0.460704  Biso 1.000000     C
    C   1.0     0.378893     0.651687     0.369891  Biso 1.000000     C
    C   1.0     0.116542     0.806680     0.958834  Biso 1.000000     C
    C   1.0     0.121203     0.848590     0.868116  Biso 1.000000     C
    C   1.0     0.383307     0.306623     0.041166  Biso 1.000000     C
    C   1.0     0.377817     0.348239     0.132126  Biso 1.000000     C
    C   1.0     0.116061     0.194602     0.541490  Biso 1.000000     C
    C   1.0     0.120561     0.152815     0.632425  Biso 1.000000     C
    C   1.0     0.618014     0.307776     0.539361  Biso 1.000000     C
    C   1.0     0.621035     0.349432     0.630381  Biso 1.000000     C
    C   1.0     0.883446     0.193394     0.041236  Biso 1.000000     C
    C   1.0     0.878632     0.151556     0.132062  Biso 1.000000     C
    C   1.0     0.616509     0.693487     0.962698  Biso 1.000000     C
    C   1.0     0.621890     0.651946     0.871639  Biso 1.000000     C
    C   1.0     0.882205     0.806496     0.458407  Biso 1.000000     C
    C   1.0     0.879126     0.847909     0.366914  Biso 1.000000     C
    N   1.0     0.488976     0.879501     0.295375  Biso 1.000000     N
    N   1.0     0.385480     0.810020     0.192780  Biso 1.000000     N
    N   1.0     0.497128     0.883478     0.108530  Biso 1.000000     N
    N   1.0     0.584939     0.803959     0.200649  Biso 1.000000     N
    N   1.0     0.000000     0.620718     0.795024  Biso 1.000000     N
    N   1.0     0.115273     0.689799     0.693542  Biso 1.000000     N
    N   1.0     0.000000     0.616578     0.608165  Biso 1.000000     N
    N   1.0     0.915744     0.696399     0.698281  Biso 1.000000     N
    N   1.0     0.489922     0.120929     0.204927  Biso 1.000000     N
    N   1.0     0.384532     0.189993     0.306374  Biso 1.000000     N
    N   1.0     0.495715     0.116701     0.391793  Biso 1.000000     N
    N   1.0     0.584050     0.196548     0.301481  Biso 1.000000     N
    N   1.0     0.000000     0.379402     0.705720  Biso 1.000000     N
    N   1.0     0.114526     0.310121     0.807626  Biso 1.000000     N
    N   1.0     0.000000     0.383244     0.892623  Biso 1.000000     N
    N   1.0     0.915061     0.303558     0.801360  Biso 1.000000     N
    N   1.0     0.509770     0.121081     0.705093  Biso 1.000000     N
    N   1.0     0.614792     0.190259     0.807023  Biso 1.000000     N
    N   1.0     0.503091     0.117147     0.891963  Biso 1.000000     N
    N   1.0     0.415363     0.196915     0.800540  Biso 1.000000     N
    N   1.0    -0.010828     0.379664     0.205568  Biso 1.000000     N
    N   1.0     0.884603     0.310304     0.307419  Biso 1.000000     N
    N   1.0    -0.003662     0.383484     0.392486  Biso 1.000000     N
    N   1.0     0.084113     0.303875     0.301192  Biso 1.000000     N
    N   1.0     0.510352     0.878977     0.795892  Biso 1.000000     N
    N   1.0     0.615109     0.810146     0.693341  Biso 1.000000     N
    N   1.0     0.502965     0.883503     0.609018  Biso 1.000000     N
    N   1.0     0.415644     0.803423     0.699664  Biso 1.000000     N
    N   1.0    -0.009208     0.620758     0.294606  Biso 1.000000     N
    N   1.0     0.885832     0.690316     0.193276  Biso 1.000000     N
    N   1.0    -0.003437     0.617059     0.107683  Biso 1.000000     N
    N   1.0     0.085348     0.696511     0.198878  Biso 1.000000     N
    O   1.0     0.323418     0.965142     0.934176  Biso 1.000000     O
    O   1.0     0.680762     0.969966     0.932733  Biso 1.000000     O
    O   1.0     0.176451     0.532420     0.427191  Biso 1.000000     O
    O   1.0     0.819056     0.534579     0.444399  Biso 1.000000     O
    O   1.0     0.323465     0.032401     0.576600  Biso 1.000000     O
    O   1.0     0.680832     0.034770     0.551031  Biso 1.000000     O
    O   1.0     0.176519     0.464904     0.062396  Biso 1.000000     O
    O   1.0     0.819143     0.469980     0.068775  Biso 1.000000     O
    O   1.0     0.678322     0.035486     0.063074  Biso 1.000000     O
    O   1.0     0.319462     0.032045     0.062432  Biso 1.000000     O
    O   1.0     0.824304     0.467555     0.572671  Biso 1.000000     O
    O   1.0     0.183445     0.465393     0.555396  Biso 1.000000     O
    O   1.0     0.672222     0.967791     0.423064  Biso 1.000000     O
    O   1.0     0.314838     0.965181     0.449001  Biso 1.000000     O
    O   1.0     0.820106     0.535166     0.937626  Biso 1.000000     O
    O   1.0     0.179076     0.529929     0.931034  Biso 1.000000     O
    O   1.0     0.435514     0.740272     0.448921  Biso 1.000000     O
    O   1.0     0.333669     0.677436     0.541842  Biso 1.000000     O
    O   1.0     0.064492     0.759897     0.946847  Biso 1.000000     O
    O   1.0     0.166537     0.822547     0.000000  Biso 1.000000     O
    O   1.0     0.435605     0.259921     0.053080  Biso 1.000000     O
    O   1.0     0.333528     0.322601    -0.040269  Biso 1.000000     O
    O   1.0     0.060023     0.240185     0.551306  Biso 1.000000     O
    O   1.0     0.170714     0.179897     0.462442  Biso 1.000000     O
    O   1.0     0.568941     0.260076     0.551151  Biso 1.000000     O
    O   1.0     0.666028     0.324838     0.457857  Biso 1.000000     O
    O   1.0     0.935444     0.240191     0.053181  Biso 1.000000     O
    O   1.0     0.833620     0.177449    -0.040154  Biso 1.000000     O
    O   1.0     0.564473     0.740287     0.950900  Biso 1.000000     O
    O   1.0     0.665986     0.677367     0.000000  Biso 1.000000     O
    O   1.0     0.935623     0.760017     0.448800  Biso 1.000000     O
    O   1.0     0.829252     0.822429     0.537766  Biso 1.000000     O
   Ag   1.0     0.503578     0.947613     0.947475  Biso 1.000000    Ag
   Ag   1.0     0.722188     0.738463     0.177597  Biso 1.000000    Ag
   Ag   1.0    -0.001458     0.552157     0.447044  Biso 1.000000    Ag
   Ag   1.0     0.778967     0.762185     0.673939  Biso 1.000000    Ag
   Ag   1.0     0.501120     0.052355     0.553332  Biso 1.000000    Ag
   Ag   1.0     0.720430     0.262623     0.325569  Biso 1.000000    Ag
   Ag   1.0    -0.003808     0.448108     0.053566  Biso 1.000000    Ag
   Ag   1.0     0.778348     0.237924     0.824764  Biso 1.000000    Ag
   Ag   1.0     0.497872     0.052437     0.052931  Biso 1.000000    Ag
   Ag   1.0     0.278358     0.262388     0.824679  Biso 1.000000    Ag
   Ag   1.0     0.000000     0.447643     0.553666  Biso 1.000000    Ag
   Ag   1.0     0.221575     0.238564     0.324172  Biso 1.000000    Ag
   Ag   1.0     0.494632     0.947682     0.447592  Biso 1.000000    Ag
   Ag   1.0     0.278741     0.737805     0.676406  Biso 1.000000    Ag
   Ag   1.0     0.000000     0.552623     0.946985  Biso 1.000000    Ag
   Ag   1.0     0.222290     0.761995     0.174860  Biso 1.000000    Ag
