#======================================================================

# CRYSTAL DATA

#----------------------------------------------------------------------

data_VESTA_phase_1


_pd_phase_name                         MOF
_cell_length_a                         14.83100
_cell_length_b                         14.83600
_cell_length_c                         14.83100
_cell_angle_alpha                      109.47100
_cell_angle_beta                       109.46100
_cell_angle_gamma                      109.44900
_symmetry_space_group_name_H-M         "P 1"
_symmetry_Int_Tables_number            1

loop_
_symmetry_equiv_pos_as_xyz
   "x, y, z"

loop_
   _atom_site_label
   _atom_site_occupancy
   _atom_site_fract_x
   _atom_site_fract_y
   _atom_site_fract_z
   _atom_site_adp_type
   _atom_site_B_iso_or_equiv
   _atom_site_type_symbol
    H   1.0     0.417187     0.654956     0.530250  Biso 1.000000     H
    H   1.0     0.585168     0.115492     0.238129  Biso 1.000000     H
    H   1.0     0.875129     0.345069     0.763181  Biso 1.000000     H
    H   1.0     0.765338     0.877265     0.352308  Biso 1.000000     H
    H   1.0     0.466037     0.122879     0.885206  Biso 1.000000     H
    H   1.0     0.531762     0.416193     0.655161  Biso 1.000000     H
    H   1.0     0.647753     0.526347     0.412556  Biso 1.000000     H
    H   1.0     0.882798     0.463563     0.124103  Biso 1.000000     H
    H   1.0     0.342420     0.762281     0.875168  Biso 1.000000     H
    H   1.0     0.114029     0.239243     0.579374  Biso 1.000000     H
    H   1.0     0.649590     0.413818     0.529355  Biso 1.000000     H
    H   1.0     0.342652     0.876288     0.759841  Biso 1.000000     H
    H   1.0     0.112031     0.578982     0.236417  Biso 1.000000     H
    H   1.0     0.124879     0.468423     0.886026  Biso 1.000000     H
    H   1.0     0.418310     0.532085     0.655089  Biso 1.000000     H
    H   1.0     0.582478     0.236791     0.114384  Biso 1.000000     H
    H   1.0     0.878220     0.760784     0.352025  Biso 1.000000     H
    H   1.0     0.236062     0.112874     0.579959  Biso 1.000000     H
    H   1.0     0.759460     0.344536     0.876893  Biso 1.000000     H
    H   1.0     0.532975     0.656461     0.416749  Biso 1.000000     H
    H   1.0     0.532077     0.008369     0.632752  Biso 1.000000     H
    H   1.0     0.474092     0.921983     0.679948  Biso 1.000000     H
    H   1.0     0.545093     0.068318     0.764671  Biso 1.000000     H
    H   1.0     0.236234     0.746269     0.241494  Biso 1.000000     H
    H   1.0     0.369747     0.854081     0.291988  Biso 1.000000     H
    H   1.0     0.304472     0.863818     0.373683  Biso 1.000000     H
    H   1.0     0.766060     0.066833     0.546229  Biso 1.000000     H
    H   1.0     0.675202     0.921589     0.475991  Biso 1.000000     H
    H   1.0     0.634559     0.014715     0.535153  Biso 1.000000     H
    H   1.0     0.469788     0.094539     0.472158  Biso 1.000000     H
    H   1.0     0.521539     0.205019     0.448185  Biso 1.000000     H
    H   1.0     0.447648     0.206915     0.521467  Biso 1.000000     H
    H   1.0     0.478209     0.691744     0.927341  Biso 1.000000     H
    H   1.0     0.526626     0.623890     0.992566  Biso 1.000000     H
    H   1.0     0.553178     0.758128     0.074207  Biso 1.000000     H
    H   1.0     0.521850     0.444941     0.196509  Biso 1.000000     H
    H   1.0     0.467031     0.479577     0.095742  Biso 1.000000     H
    H   1.0     0.451518     0.520623     0.213492  Biso 1.000000     H
    H   1.0     0.629011     0.482934     0.922650  Biso 1.000000     H
    H   1.0     0.762676     0.511729     0.010032  Biso 1.000000     H
    H   1.0     0.689915     0.558091     0.069106  Biso 1.000000     H
    H   1.0     0.313813     0.239791     0.790316  Biso 1.000000     H
    H   1.0     0.233345     0.306246     0.781472  Biso 1.000000     H
    H   1.0     0.365899     0.373611     0.898225  Biso 1.000000     H
    H   1.0     0.790186     0.312287     0.241761  Biso 1.000000     H
    H   1.0     0.793974     0.242247     0.318884  Biso 1.000000     H
    H   1.0     0.902723     0.377354     0.376562  Biso 1.000000     H
    H   1.0     0.917078     0.648941     0.478050  Biso 1.000000     H
    H   1.0     0.042770     0.769998     0.531013  Biso 1.000000     H
    H   1.0     0.046574     0.660250     0.550948  Biso 1.000000     H
    H   1.0     0.211421     0.449660     0.523705  Biso 1.000000     H
    H   1.0     0.214004     0.523089     0.449980  Biso 1.000000     H
    H   1.0     0.100100     0.471787     0.469416  Biso 1.000000     H
    H   1.0     0.925335     0.476706     0.687605  Biso 1.000000     H
    H   1.0     0.072457     0.549826     0.763549  Biso 1.000000     H
    H   1.0     0.122836     0.883762     0.462231  Biso 1.000000     H
    H   1.0     0.240841     0.583284     0.115299  Biso 1.000000     H
    H   1.0     0.884846     0.124734     0.466286  Biso 1.000000     H
    H   1.0     0.471662     0.886327     0.123000  Biso 1.000000     H
    H   1.0     0.001542     0.530797     0.630319  Biso 1.000000     H
    C   1.0     0.209189     0.941814     0.523447  Biso 1.000000     C
    C   1.0     0.415536     0.682274     0.470695  Biso 1.000000     C
    C   1.0     0.586122     0.057457     0.267052  Biso 1.000000     C
    C   1.0     0.787988     0.316400     0.733696  Biso 1.000000     C
    C   1.0     0.269158     0.584354     0.056859  Biso 1.000000     C
    C   1.0     0.735207     0.789844     0.322073  Biso 1.000000     C
    C   1.0     0.525996     0.209573     0.943138  Biso 1.000000     C
    C   1.0     0.472083     0.415028     0.682217  Biso 1.000000     C
    C   1.0     0.677621     0.468956     0.413367  Biso 1.000000     C
    C   1.0     0.941380     0.523890     0.210578  Biso 1.000000     C
    C   1.0     0.315586     0.733218     0.788364  Biso 1.000000     C
    C   1.0     0.056192     0.268073     0.582017  Biso 1.000000     C
    C   1.0     0.678522     0.413293     0.471087  Biso 1.000000     C
    C   1.0     0.942860     0.211438     0.526160  Biso 1.000000     C
    C   1.0     0.315724     0.789589     0.731348  Biso 1.000000     C
    C   1.0     0.054690     0.580936     0.266112  Biso 1.000000     C
    C   1.0     0.211870     0.527588     0.943509  Biso 1.000000     C
    C   1.0     0.415980     0.472321     0.682215  Biso 1.000000     C
    C   1.0     0.583543     0.265897     0.056479  Biso 1.000000     C
    C   1.0     0.791054     0.732311     0.321958  Biso 1.000000     C
    C   1.0     0.265227     0.055088     0.581468  Biso 1.000000     C
    C   1.0     0.730815     0.316110     0.789919  Biso 1.000000     C
    C   1.0     0.529983     0.944175     0.210111  Biso 1.000000     C
    C   1.0     0.472783     0.682985     0.414546  Biso 1.000000     C
    C   1.0     0.383174    -0.001212     0.629515  Biso 1.000000     C
    C   1.0     0.488886    -0.000681     0.679602  Biso 1.000000     C
    C   1.0     0.369812     0.754700     0.368374  Biso 1.000000     C
    C   1.0     0.317379     0.807392     0.316133  Biso 1.000000     C
    C   1.0     0.631364     0.000541     0.385006  Biso 1.000000     C
    C   1.0     0.679519     0.000779     0.490851  Biso 1.000000     C
    C   1.0     0.613290     0.242870     0.614898  Biso 1.000000     C
    C   1.0     0.507792     0.184757     0.508864  Biso 1.000000     C
    C   1.0     0.386106     0.630433    -0.000948  Biso 1.000000     C
    C   1.0     0.491337     0.678828    -0.001722  Biso 1.000000     C
    C   1.0     0.615253     0.614914     0.245084  Biso 1.000000     C
    C   1.0     0.508623     0.509697     0.185064  Biso 1.000000     C
    C   1.0     0.628227     0.384285    -0.000077  Biso 1.000000     C
    C   1.0     0.680074     0.489595     0.000313  Biso 1.000000     C
    C   1.0     0.367332     0.368305     0.752137  Biso 1.000000     C
    C   1.0     0.317226     0.319144     0.807971  Biso 1.000000     C
    C   1.0     0.753381     0.369252     0.370888  Biso 1.000000     C
    C   1.0     0.812669     0.322533     0.324329  Biso 1.000000     C
    C   1.0    -0.000432     0.628080     0.385348  Biso 1.000000     C
    C   1.0     0.001272     0.679503     0.491565  Biso 1.000000     C
    C   1.0     0.246195     0.615312     0.614343  Biso 1.000000     C
    C   1.0     0.190541     0.509697     0.509130  Biso 1.000000     C
    C   1.0    -0.000320     0.385565     0.631015  Biso 1.000000     C
    C   1.0    -0.000230     0.491021     0.681013  Biso 1.000000     C
    N   1.0     0.283776     0.906344     0.554229  Biso 1.000000     N
    N   1.0     0.350307     0.727386     0.441231  Biso 1.000000     N
    N   1.0     0.650431     0.092903     0.377454  Biso 1.000000     N
    N   1.0     0.713630     0.270473     0.623119  Biso 1.000000     N
    N   1.0     0.379187     0.649602     0.091812  Biso 1.000000     N
    N   1.0     0.624159     0.715566     0.273790  Biso 1.000000     N
    N   1.0     0.554517     0.284451     0.907490  Biso 1.000000     N
    N   1.0     0.440963     0.349040     0.726155  Biso 1.000000     N
    N   1.0     0.724655     0.440719     0.349824  Biso 1.000000     N
    N   1.0     0.906672     0.554065     0.285992  Biso 1.000000     N
    N   1.0     0.271985     0.623138     0.714327  Biso 1.000000     N
    N   1.0     0.091976     0.378051     0.648612  Biso 1.000000     N
    N   1.0     0.726077     0.350049     0.443826  Biso 1.000000     N
    N   1.0     0.907289     0.285734     0.557592  Biso 1.000000     N
    N   1.0     0.272242     0.715024     0.621439  Biso 1.000000     N
    N   1.0     0.091323     0.647019     0.376451  Biso 1.000000     N
    N   1.0     0.285823     0.557151     0.907078  Biso 1.000000     N
    N   1.0     0.349513     0.442371     0.726029  Biso 1.000000     N
    N   1.0     0.648273     0.376263     0.092231  Biso 1.000000     N
    N   1.0     0.715127     0.621748     0.273505  Biso 1.000000     N
    N   1.0     0.375072     0.090928     0.648756  Biso 1.000000     N
    N   1.0     0.620495     0.269974     0.714787  Biso 1.000000     N
    N   1.0     0.558935     0.908318     0.284762  Biso 1.000000     N
    N   1.0     0.443597     0.728569     0.349736  Biso 1.000000     N
   Zn   1.0     0.249097     0.748702     0.497730  Biso 1.000000    Zn
   Zn   1.0     0.749471     0.250154     0.501287  Biso 1.000000    Zn
   Zn   1.0     0.501421     0.750541     0.249455  Biso 1.000000    Zn
   Zn   1.0     0.497738     0.248486     0.749510  Biso 1.000000    Zn
   Zn   1.0     0.748867     0.498196     0.250145  Biso 1.000000    Zn
   Zn   1.0     0.249721     0.500430     0.749107  Biso 1.000000    Zn
