#======================================================================

# CRYSTAL DATA

#----------------------------------------------------------------------

data_VESTA_phase_1


_pd_phase_name                         MOF
_cell_length_a                         19.29200
_cell_length_b                         19.29200
_cell_length_c                         22.64300
_cell_angle_alpha                      90.53900
_cell_angle_beta                       90.53800
_cell_angle_gamma                      103.44300
_symmetry_space_group_name_H-M         "P 1"
_symmetry_Int_Tables_number            1

loop_
_symmetry_equiv_pos_as_xyz
   "x, y, z"

loop_
   _atom_site_label
   _atom_site_occupancy
   _atom_site_fract_x
   _atom_site_fract_y
   _atom_site_fract_z
   _atom_site_adp_type
   _atom_site_B_iso_or_equiv
   _atom_site_type_symbol
    H   1.0     0.273568     0.022076     0.106804  Biso 1.000000     H
    H   1.0     0.273560     0.022077     0.606816  Biso 1.000000     H
    H   1.0     0.273566     0.522065     0.106804  Biso 1.000000     H
    H   1.0     0.273561     0.522066     0.606813  Biso 1.000000     H
    H   1.0     0.773557     0.022076     0.106802  Biso 1.000000     H
    H   1.0     0.773544     0.022077     0.606815  Biso 1.000000     H
    H   1.0     0.773550     0.522065     0.106805  Biso 1.000000     H
    H   1.0     0.773541     0.522066     0.606815  Biso 1.000000     H
    H   1.0     0.477906     0.226417     0.143209  Biso 1.000000     H
    H   1.0     0.477901     0.226419     0.643227  Biso 1.000000     H
    H   1.0     0.477902     0.726407     0.143210  Biso 1.000000     H
    H   1.0     0.477897     0.726407     0.643228  Biso 1.000000     H
    H   1.0     0.977892     0.226413     0.143213  Biso 1.000000     H
    H   1.0     0.977887     0.226416     0.643229  Biso 1.000000     H
    H   1.0     0.977888     0.726404     0.143211  Biso 1.000000     H
    H   1.0     0.977883     0.726405     0.643231  Biso 1.000000     H
    H   1.0     0.226409     0.477918     0.393217  Biso 1.000000     H
    H   1.0     0.226399     0.477919     0.893229  Biso 1.000000     H
    H   1.0     0.226402     0.977907     0.393220  Biso 1.000000     H
    H   1.0     0.226395     0.977908     0.893229  Biso 1.000000     H
    H   1.0     0.726391     0.477918     0.393218  Biso 1.000000     H
    H   1.0     0.726381     0.477919     0.893230  Biso 1.000000     H
    H   1.0     0.726388     0.977906     0.393219  Biso 1.000000     H
    H   1.0     0.726382     0.977909     0.893228  Biso 1.000000     H
    H   1.0     0.022067     0.273574     0.356806  Biso 1.000000     H
    H   1.0     0.022061     0.273577     0.856823  Biso 1.000000     H
    H   1.0     0.022061     0.773565     0.356805  Biso 1.000000     H
    H   1.0     0.022055     0.773565     0.856825  Biso 1.000000     H
    H   1.0     0.522052     0.273579     0.356804  Biso 1.000000     H
    H   1.0     0.522047     0.273580     0.856822  Biso 1.000000     H
    H   1.0     0.522046     0.773567     0.356805  Biso 1.000000     H
    H   1.0     0.522043     0.773568     0.856824  Biso 1.000000     H
    C   1.0     0.276921     0.142631     0.051740  Biso 1.000000     C
    C   1.0     0.276915     0.142630     0.551754  Biso 1.000000     C
    C   1.0     0.276915     0.642619     0.051740  Biso 1.000000     C
    C   1.0     0.276913     0.642620     0.551752  Biso 1.000000     C
    C   1.0     0.776904     0.142630     0.051741  Biso 1.000000     C
    C   1.0     0.776901     0.142630     0.551752  Biso 1.000000     C
    C   1.0     0.776898     0.642618     0.051742  Biso 1.000000     C
    C   1.0     0.776895     0.642620     0.551753  Biso 1.000000     C
    C   1.0     0.244684     0.114754     0.418229  Biso 1.000000     C
    C   1.0     0.244680     0.114756     0.918243  Biso 1.000000     C
    C   1.0     0.244681     0.614743     0.418231  Biso 1.000000     C
    C   1.0     0.244678     0.614747     0.918242  Biso 1.000000     C
    C   1.0     0.744671     0.114754     0.418230  Biso 1.000000     C
    C   1.0     0.744655     0.114754     0.918243  Biso 1.000000     C
    C   1.0     0.744666     0.614744     0.418230  Biso 1.000000     C
    C   1.0     0.744661     0.614746     0.918242  Biso 1.000000     C
    C   1.0     0.261579     0.070024     0.022859  Biso 1.000000     C
    C   1.0     0.261579     0.070026     0.522868  Biso 1.000000     C
    C   1.0     0.261583     0.570013     0.022858  Biso 1.000000     C
    C   1.0     0.261569     0.570016     0.522867  Biso 1.000000     C
    C   1.0     0.761568     0.070024     0.022856  Biso 1.000000     C
    C   1.0     0.761548     0.070024     0.522868  Biso 1.000000     C
    C   1.0     0.761576     0.570014     0.022856  Biso 1.000000     C
    C   1.0     0.761557     0.570015     0.522868  Biso 1.000000     C
    C   1.0     0.248093     0.057295     0.461947  Biso 1.000000     C
    C   1.0     0.248091     0.057295     0.961959  Biso 1.000000     C
    C   1.0     0.248090     0.557283     0.461947  Biso 1.000000     C
    C   1.0     0.248083     0.557286     0.961959  Biso 1.000000     C
    C   1.0     0.748077     0.057294     0.461946  Biso 1.000000     C
    C   1.0     0.748073     0.057296     0.961958  Biso 1.000000     C
    C   1.0     0.748074     0.557284     0.461947  Biso 1.000000     C
    C   1.0     0.748064     0.557283     0.961959  Biso 1.000000     C
    C   1.0     0.263017     0.012746     0.059704  Biso 1.000000     C
    C   1.0     0.263012     0.012749     0.559715  Biso 1.000000     C
    C   1.0     0.263008     0.512734     0.059705  Biso 1.000000     C
    C   1.0     0.263003     0.512737     0.559713  Biso 1.000000     C
    C   1.0     0.762992     0.012744     0.059704  Biso 1.000000     C
    C   1.0     0.763000     0.012749     0.559713  Biso 1.000000     C
    C   1.0     0.762989     0.512735     0.059706  Biso 1.000000     C
    C   1.0     0.762991     0.512738     0.559714  Biso 1.000000     C
    C   1.0     0.357351     0.223069     0.198273  Biso 1.000000     C
    C   1.0     0.357347     0.223070     0.698287  Biso 1.000000     C
    C   1.0     0.357349     0.723057     0.198271  Biso 1.000000     C
    C   1.0     0.357344     0.723058     0.698284  Biso 1.000000     C
    C   1.0     0.857339     0.223065     0.198270  Biso 1.000000     C
    C   1.0     0.857335     0.223070     0.698284  Biso 1.000000     C
    C   1.0     0.857337     0.723056     0.198270  Biso 1.000000     C
    C   1.0     0.857330     0.723059     0.698284  Biso 1.000000     C
    C   1.0     0.385227     0.255297     0.331794  Biso 1.000000     C
    C   1.0     0.385225     0.255310     0.831810  Biso 1.000000     C
    C   1.0     0.385224     0.755296     0.331795  Biso 1.000000     C
    C   1.0     0.385221     0.755299     0.831810  Biso 1.000000     C
    C   1.0     0.885213     0.255300     0.331794  Biso 1.000000     C
    C   1.0     0.885214     0.255319     0.831810  Biso 1.000000     C
    C   1.0     0.885209     0.755290     0.331794  Biso 1.000000     C
    C   1.0     0.885205     0.755293     0.831808  Biso 1.000000     C
    C   1.0     0.429955     0.238395     0.227155  Biso 1.000000     C
    C   1.0     0.429951     0.238400     0.727174  Biso 1.000000     C
    C   1.0     0.429951     0.738380     0.227159  Biso 1.000000     C
    C   1.0     0.429946     0.738387     0.727173  Biso 1.000000     C
    C   1.0     0.929943     0.238408     0.227157  Biso 1.000000     C
    C   1.0     0.929937     0.238395     0.727175  Biso 1.000000     C
    C   1.0     0.929940     0.738387     0.227158  Biso 1.000000     C
    C   1.0     0.929931     0.738394     0.727175  Biso 1.000000     C
    C   1.0     0.442686     0.251882     0.288077  Biso 1.000000     C
    C   1.0     0.442681     0.251880     0.788095  Biso 1.000000     C
    C   1.0     0.442681     0.751869     0.288079  Biso 1.000000     C
    C   1.0     0.442677     0.751870     0.788094  Biso 1.000000     C
    C   1.0     0.942672     0.251882     0.288078  Biso 1.000000     C
    C   1.0     0.942667     0.251878     0.788095  Biso 1.000000     C
    C   1.0     0.942669     0.751874     0.288078  Biso 1.000000     C
    C   1.0     0.942666     0.751873     0.788095  Biso 1.000000     C
    C   1.0     0.487233     0.236967     0.190309  Biso 1.000000     C
    C   1.0     0.487231     0.236975     0.690327  Biso 1.000000     C
    C   1.0     0.487231     0.736962     0.190310  Biso 1.000000     C
    C   1.0     0.487228     0.736967     0.690327  Biso 1.000000     C
    C   1.0     0.987223     0.236973     0.190312  Biso 1.000000     C
    C   1.0     0.987219     0.236983     0.690327  Biso 1.000000     C
    C   1.0     0.987219     0.736963     0.190310  Biso 1.000000     C
    C   1.0     0.987213     0.736968     0.690330  Biso 1.000000     C
    C   1.0     0.223057     0.357364     0.448278  Biso 1.000000     C
    C   1.0     0.223052     0.357362     0.948291  Biso 1.000000     C
    C   1.0     0.223048     0.857353     0.448277  Biso 1.000000     C
    C   1.0     0.223047     0.857353     0.948289  Biso 1.000000     C
    C   1.0     0.723038     0.357363     0.448279  Biso 1.000000     C
    C   1.0     0.723034     0.357362     0.948290  Biso 1.000000     C
    C   1.0     0.723033     0.857353     0.448272  Biso 1.000000     C
    C   1.0     0.723033     0.857350     0.948292  Biso 1.000000     C
    C   1.0     0.255284     0.385237     0.081790  Biso 1.000000     C
    C   1.0     0.255286     0.385242     0.581802  Biso 1.000000     C
    C   1.0     0.255287     0.885227     0.081791  Biso 1.000000     C
    C   1.0     0.255282     0.885232     0.581802  Biso 1.000000     C
    C   1.0     0.755281     0.385241     0.081789  Biso 1.000000     C
    C   1.0     0.755267     0.385242     0.581802  Biso 1.000000     C
    C   1.0     0.755275     0.885230     0.081789  Biso 1.000000     C
    C   1.0     0.755266     0.885232     0.581801  Biso 1.000000     C
    C   1.0     0.238384     0.429968     0.477165  Biso 1.000000     C
    C   1.0     0.238382     0.429969     0.977175  Biso 1.000000     C
    C   1.0     0.238397     0.929958     0.477165  Biso 1.000000     C
    C   1.0     0.238384     0.929958     0.977176  Biso 1.000000     C
    C   1.0     0.738379     0.429969     0.477164  Biso 1.000000     C
    C   1.0     0.738366     0.429967     0.977176  Biso 1.000000     C
    C   1.0     0.738377     0.929955     0.477164  Biso 1.000000     C
    C   1.0     0.738352     0.929956     0.977174  Biso 1.000000     C
    C   1.0     0.251884     0.442699     0.038073  Biso 1.000000     C
    C   1.0     0.251876     0.442701     0.538086  Biso 1.000000     C
    C   1.0     0.251874     0.942686     0.038075  Biso 1.000000     C
    C   1.0     0.251869     0.942690     0.538086  Biso 1.000000     C
    C   1.0     0.751860     0.442699     0.038074  Biso 1.000000     C
    C   1.0     0.751856     0.442701     0.538085  Biso 1.000000     C
    C   1.0     0.751858     0.942688     0.038073  Biso 1.000000     C
    C   1.0     0.751850     0.942690     0.538086  Biso 1.000000     C
    C   1.0     0.236957     0.487245     0.440318  Biso 1.000000     C
    C   1.0     0.236956     0.487249     0.940329  Biso 1.000000     C
    C   1.0     0.236954     0.987237     0.440321  Biso 1.000000     C
    C   1.0     0.236951     0.987237     0.940329  Biso 1.000000     C
    C   1.0     0.736938     0.487246     0.440319  Biso 1.000000     C
    C   1.0     0.736941     0.487248     0.940329  Biso 1.000000     C
    C   1.0     0.736933     0.987233     0.440320  Biso 1.000000     C
    C   1.0     0.736937     0.987237     0.940327  Biso 1.000000     C
    C   1.0     0.142621     0.276922     0.301744  Biso 1.000000     C
    C   1.0     0.142614     0.276928     0.801760  Biso 1.000000     C
    C   1.0     0.142619     0.776911     0.301740  Biso 1.000000     C
    C   1.0     0.142609     0.776915     0.801760  Biso 1.000000     C
    C   1.0     0.642606     0.276926     0.301743  Biso 1.000000     C
    C   1.0     0.642600     0.276928     0.801761  Biso 1.000000     C
    C   1.0     0.642603     0.776914     0.301743  Biso 1.000000     C
    C   1.0     0.642597     0.776917     0.801757  Biso 1.000000     C
    C   1.0     0.114741     0.244681     0.168223  Biso 1.000000     C
    C   1.0     0.114737     0.244688     0.668239  Biso 1.000000     C
    C   1.0     0.114738     0.744672     0.168223  Biso 1.000000     C
    C   1.0     0.114735     0.744684     0.668237  Biso 1.000000     C
    C   1.0     0.614729     0.244694     0.168223  Biso 1.000000     C
    C   1.0     0.614726     0.244694     0.668238  Biso 1.000000     C
    C   1.0     0.614725     0.744679     0.168223  Biso 1.000000     C
    C   1.0     0.614720     0.744677     0.668237  Biso 1.000000     C
    C   1.0     0.070016     0.261603     0.272859  Biso 1.000000     C
    C   1.0     0.070010     0.261604     0.772875  Biso 1.000000     C
    C   1.0     0.070012     0.761589     0.272859  Biso 1.000000     C
    C   1.0     0.070005     0.761592     0.772875  Biso 1.000000     C
    C   1.0     0.570001     0.261588     0.272859  Biso 1.000000     C
    C   1.0     0.569997     0.261600     0.772874  Biso 1.000000     C
    C   1.0     0.569998     0.761584     0.272859  Biso 1.000000     C
    C   1.0     0.569991     0.761590     0.772875  Biso 1.000000     C
    C   1.0     0.057285     0.248114     0.211938  Biso 1.000000     C
    C   1.0     0.057281     0.248113     0.711955  Biso 1.000000     C
    C   1.0     0.057282     0.748102     0.211939  Biso 1.000000     C
    C   1.0     0.057276     0.748098     0.711955  Biso 1.000000     C
    C   1.0     0.557271     0.248109     0.211939  Biso 1.000000     C
    C   1.0     0.557268     0.248113     0.711954  Biso 1.000000     C
    C   1.0     0.557268     0.748101     0.211939  Biso 1.000000     C
    C   1.0     0.557265     0.748104     0.711955  Biso 1.000000     C
    C   1.0     0.012735     0.263021     0.309706  Biso 1.000000     C
    C   1.0     0.012729     0.263017     0.809724  Biso 1.000000     C
    C   1.0     0.012731     0.763008     0.309706  Biso 1.000000     C
    C   1.0     0.012728     0.763015     0.809724  Biso 1.000000     C
    C   1.0     0.512721     0.263021     0.309705  Biso 1.000000     C
    C   1.0     0.512718     0.263022     0.809722  Biso 1.000000     C
    C   1.0     0.512717     0.763006     0.309706  Biso 1.000000     C
    C   1.0     0.512712     0.763009     0.809725  Biso 1.000000     C
    O   1.0     0.222754     0.158632     0.077718  Biso 1.000000     O
    O   1.0     0.222746     0.158631     0.577730  Biso 1.000000     O
    O   1.0     0.222748     0.658621     0.077718  Biso 1.000000     O
    O   1.0     0.222744     0.658620     0.577729  Biso 1.000000     O
    O   1.0     0.722737     0.158632     0.077719  Biso 1.000000     O
    O   1.0     0.722733     0.158631     0.577729  Biso 1.000000     O
    O   1.0     0.722730     0.658623     0.077718  Biso 1.000000     O
    O   1.0     0.722726     0.658621     0.577729  Biso 1.000000     O
    O   1.0     0.338817     0.180546     0.052492  Biso 1.000000     O
    O   1.0     0.338812     0.180545     0.552500  Biso 1.000000     O
    O   1.0     0.338812     0.680532     0.052492  Biso 1.000000     O
    O   1.0     0.338809     0.680535     0.552505  Biso 1.000000     O
    O   1.0     0.838800     0.180545     0.052495  Biso 1.000000     O
    O   1.0     0.838796     0.180548     0.552505  Biso 1.000000     O
    O   1.0     0.838795     0.680530     0.052490  Biso 1.000000     O
    O   1.0     0.838792     0.680533     0.552502  Biso 1.000000     O
    O   1.0     0.242126     0.177111     0.439803  Biso 1.000000     O
    O   1.0     0.242121     0.177113     0.939817  Biso 1.000000     O
    O   1.0     0.242125     0.677102     0.439805  Biso 1.000000     O
    O   1.0     0.242117     0.677103     0.939819  Biso 1.000000     O
    O   1.0     0.742111     0.177112     0.439805  Biso 1.000000     O
    O   1.0     0.742109     0.177115     0.939817  Biso 1.000000     O
    O   1.0     0.742105     0.677101     0.439804  Biso 1.000000     O
    O   1.0     0.742100     0.677102     0.939818  Biso 1.000000     O
    O   1.0     0.243387     0.100843     0.364115  Biso 1.000000     O
    O   1.0     0.243381     0.100847     0.864128  Biso 1.000000     O
    O   1.0     0.243380     0.600835     0.364116  Biso 1.000000     O
    O   1.0     0.243375     0.600835     0.864128  Biso 1.000000     O
    O   1.0     0.743367     0.100846     0.364115  Biso 1.000000     O
    O   1.0     0.743363     0.100852     0.864127  Biso 1.000000     O
    O   1.0     0.743363     0.600831     0.364116  Biso 1.000000     O
    O   1.0     0.743358     0.600835     0.864128  Biso 1.000000     O
    O   1.0     0.341351     0.277236     0.172291  Biso 1.000000     O
    O   1.0     0.341347     0.277237     0.672307  Biso 1.000000     O
    O   1.0     0.341347     0.777223     0.172291  Biso 1.000000     O
    O   1.0     0.341342     0.777226     0.672306  Biso 1.000000     O
    O   1.0     0.841340     0.277234     0.172294  Biso 1.000000     O
    O   1.0     0.841332     0.277237     0.672307  Biso 1.000000     O
    O   1.0     0.841333     0.777223     0.172293  Biso 1.000000     O
    O   1.0     0.841327     0.777226     0.672307  Biso 1.000000     O
    O   1.0     0.319443     0.161170     0.197521  Biso 1.000000     O
    O   1.0     0.319438     0.161171     0.697531  Biso 1.000000     O
    O   1.0     0.319440     0.661159     0.197519  Biso 1.000000     O
    O   1.0     0.319433     0.661161     0.697532  Biso 1.000000     O
    O   1.0     0.819427     0.161167     0.197517  Biso 1.000000     O
    O   1.0     0.819424     0.161172     0.697532  Biso 1.000000     O
    O   1.0     0.819424     0.661159     0.197519  Biso 1.000000     O
    O   1.0     0.819421     0.661160     0.697531  Biso 1.000000     O
    O   1.0     0.322871     0.257857     0.310220  Biso 1.000000     O
    O   1.0     0.322866     0.257856     0.810231  Biso 1.000000     O
    O   1.0     0.322866     0.757845     0.310217  Biso 1.000000     O
    O   1.0     0.322863     0.757846     0.810232  Biso 1.000000     O
    O   1.0     0.822855     0.257850     0.310216  Biso 1.000000     O
    O   1.0     0.822852     0.257853     0.810231  Biso 1.000000     O
    O   1.0     0.822851     0.757842     0.310217  Biso 1.000000     O
    O   1.0     0.822847     0.757845     0.810231  Biso 1.000000     O
    O   1.0     0.399137     0.256590     0.385908  Biso 1.000000     O
    O   1.0     0.399128     0.256594     0.885925  Biso 1.000000     O
    O   1.0     0.399129     0.756579     0.385910  Biso 1.000000     O
    O   1.0     0.399123     0.756584     0.885925  Biso 1.000000     O
    O   1.0     0.899117     0.256597     0.385909  Biso 1.000000     O
    O   1.0     0.899112     0.256594     0.885925  Biso 1.000000     O
    O   1.0     0.899112     0.756582     0.385909  Biso 1.000000     O
    O   1.0     0.899108     0.756585     0.885923  Biso 1.000000     O
    O   1.0     0.277225     0.341363     0.422298  Biso 1.000000     O
    O   1.0     0.277219     0.341363     0.922311  Biso 1.000000     O
    O   1.0     0.277216     0.841352     0.422300  Biso 1.000000     O
    O   1.0     0.277215     0.841353     0.922311  Biso 1.000000     O
    O   1.0     0.777205     0.341363     0.422298  Biso 1.000000     O
    O   1.0     0.777203     0.341365     0.922311  Biso 1.000000     O
    O   1.0     0.777205     0.841353     0.422299  Biso 1.000000     O
    O   1.0     0.777200     0.841354     0.922309  Biso 1.000000     O
    O   1.0     0.161161     0.319451     0.447526  Biso 1.000000     O
    O   1.0     0.161155     0.319450     0.947534  Biso 1.000000     O
    O   1.0     0.161154     0.819434     0.447521  Biso 1.000000     O
    O   1.0     0.161150     0.819439     0.947535  Biso 1.000000     O
    O   1.0     0.661143     0.319446     0.447523  Biso 1.000000     O
    O   1.0     0.661137     0.319450     0.947534  Biso 1.000000     O
    O   1.0     0.661138     0.819435     0.447527  Biso 1.000000     O
    O   1.0     0.661134     0.819441     0.947538  Biso 1.000000     O
    O   1.0     0.257848     0.322883     0.060212  Biso 1.000000     O
    O   1.0     0.257843     0.322885     0.560226  Biso 1.000000     O
    O   1.0     0.257842     0.822871     0.060210  Biso 1.000000     O
    O   1.0     0.257837     0.822874     0.560226  Biso 1.000000     O
    O   1.0     0.757829     0.322882     0.060211  Biso 1.000000     O
    O   1.0     0.757826     0.322885     0.560226  Biso 1.000000     O
    O   1.0     0.757826     0.822872     0.060213  Biso 1.000000     O
    O   1.0     0.757823     0.822875     0.560227  Biso 1.000000     O
    O   1.0     0.256590     0.399147     0.135905  Biso 1.000000     O
    O   1.0     0.256583     0.399152     0.635917  Biso 1.000000     O
    O   1.0     0.256585     0.899135     0.135906  Biso 1.000000     O
    O   1.0     0.256579     0.899136     0.635917  Biso 1.000000     O
    O   1.0     0.756571     0.399146     0.135904  Biso 1.000000     O
    O   1.0     0.756568     0.399149     0.635917  Biso 1.000000     O
    O   1.0     0.756566     0.899139     0.135904  Biso 1.000000     O
    O   1.0     0.756561     0.899138     0.635917  Biso 1.000000     O
    O   1.0     0.158621     0.222755     0.327723  Biso 1.000000     O
    O   1.0     0.158615     0.222759     0.827737  Biso 1.000000     O
    O   1.0     0.158617     0.722745     0.327723  Biso 1.000000     O
    O   1.0     0.158613     0.722748     0.827737  Biso 1.000000     O
    O   1.0     0.658606     0.222760     0.327723  Biso 1.000000     O
    O   1.0     0.658602     0.222760     0.827737  Biso 1.000000     O
    O   1.0     0.658604     0.722747     0.327721  Biso 1.000000     O
    O   1.0     0.658597     0.722752     0.827738  Biso 1.000000     O
    O   1.0     0.180531     0.338820     0.302492  Biso 1.000000     O
    O   1.0     0.180529     0.338824     0.802507  Biso 1.000000     O
    O   1.0     0.180527     0.838811     0.302496  Biso 1.000000     O
    O   1.0     0.180524     0.838811     0.802505  Biso 1.000000     O
    O   1.0     0.680520     0.338822     0.302499  Biso 1.000000     O
    O   1.0     0.680516     0.338824     0.802508  Biso 1.000000     O
    O   1.0     0.680516     0.838811     0.302497  Biso 1.000000     O
    O   1.0     0.680512     0.838812     0.802510  Biso 1.000000     O
    O   1.0     0.177102     0.242140     0.189798  Biso 1.000000     O
    O   1.0     0.177098     0.242142     0.689812  Biso 1.000000     O
    O   1.0     0.177099     0.742129     0.189799  Biso 1.000000     O
    O   1.0     0.177093     0.742127     0.689811  Biso 1.000000     O
    O   1.0     0.677087     0.242137     0.189797  Biso 1.000000     O
    O   1.0     0.677084     0.242141     0.689813  Biso 1.000000     O
    O   1.0     0.677084     0.742128     0.189798  Biso 1.000000     O
    O   1.0     0.677080     0.742132     0.689811  Biso 1.000000     O
    O   1.0     0.100833     0.243401     0.114109  Biso 1.000000     O
    O   1.0     0.100830     0.243403     0.614124  Biso 1.000000     O
    O   1.0     0.100831     0.743391     0.114109  Biso 1.000000     O
    O   1.0     0.100825     0.743392     0.614123  Biso 1.000000     O
    O   1.0     0.600828     0.243400     0.114107  Biso 1.000000     O
    O   1.0     0.600816     0.243402     0.614124  Biso 1.000000     O
    O   1.0     0.600817     0.743388     0.114108  Biso 1.000000     O
    O   1.0     0.600813     0.743392     0.614123  Biso 1.000000     O
    K   1.0     0.296270     0.372658     0.242631  Biso 1.000000     K
    K   1.0     0.296265     0.372660     0.742648  Biso 1.000000     K
    K   1.0     0.296265     0.872646     0.242630  Biso 1.000000     K
    K   1.0     0.296262     0.872650     0.742647  Biso 1.000000     K
    K   1.0     0.796252     0.372656     0.242631  Biso 1.000000     K
    K   1.0     0.796249     0.372660     0.742647  Biso 1.000000     K
    K   1.0     0.796249     0.872646     0.242631  Biso 1.000000     K
    K   1.0     0.796244     0.872648     0.742648  Biso 1.000000     K
    K   1.0     0.127328     0.203711     0.007380  Biso 1.000000     K
    K   1.0     0.127325     0.203714     0.507395  Biso 1.000000     K
    K   1.0     0.127324     0.703701     0.007380  Biso 1.000000     K
    K   1.0     0.127322     0.703705     0.507394  Biso 1.000000     K
    K   1.0     0.627310     0.203712     0.007380  Biso 1.000000     K
    K   1.0     0.627309     0.203715     0.507395  Biso 1.000000     K
    K   1.0     0.627307     0.703699     0.007379  Biso 1.000000     K
    K   1.0     0.627304     0.703704     0.507395  Biso 1.000000     K
    K   1.0     0.203703     0.127334     0.257386  Biso 1.000000     K
    K   1.0     0.203700     0.127338     0.757401  Biso 1.000000     K
    K   1.0     0.203700     0.627323     0.257385  Biso 1.000000     K
    K   1.0     0.203696     0.627327     0.757402  Biso 1.000000     K
    K   1.0     0.703690     0.127335     0.257385  Biso 1.000000     K
    K   1.0     0.703684     0.127338     0.757401  Biso 1.000000     K
    K   1.0     0.703684     0.627324     0.257385  Biso 1.000000     K
    K   1.0     0.703681     0.627328     0.757401  Biso 1.000000     K
    K   1.0     0.372644     0.296280     0.492638  Biso 1.000000     K
    K   1.0     0.372641     0.296285     0.992653  Biso 1.000000     K
    K   1.0     0.372639     0.796268     0.492638  Biso 1.000000     K
    K   1.0     0.372636     0.796274     0.992654  Biso 1.000000     K
    K   1.0     0.872627     0.296279     0.492637  Biso 1.000000     K
    K   1.0     0.872625     0.296285     0.992653  Biso 1.000000     K
    K   1.0     0.872622     0.796269     0.492638  Biso 1.000000     K
    K   1.0     0.872620     0.796274     0.992652  Biso 1.000000     K
   Zn   1.0     0.250722     0.249264     0.125004  Biso 1.000000    Zn
   Zn   1.0     0.250718     0.249263     0.625016  Biso 1.000000    Zn
   Zn   1.0     0.250716     0.749253     0.125004  Biso 1.000000    Zn
   Zn   1.0     0.250712     0.749253     0.625016  Biso 1.000000    Zn
   Zn   1.0     0.750707     0.249266     0.125006  Biso 1.000000    Zn
   Zn   1.0     0.750701     0.249264     0.625017  Biso 1.000000    Zn
   Zn   1.0     0.750702     0.749253     0.125005  Biso 1.000000    Zn
   Zn   1.0     0.750697     0.749252     0.625016  Biso 1.000000    Zn
   Zn   1.0     0.249249     0.250731     0.375011  Biso 1.000000    Zn
   Zn   1.0     0.249246     0.250732     0.875022  Biso 1.000000    Zn
   Zn   1.0     0.249248     0.750719     0.375010  Biso 1.000000    Zn
   Zn   1.0     0.249242     0.750721     0.875023  Biso 1.000000    Zn
   Zn   1.0     0.749239     0.250729     0.375010  Biso 1.000000    Zn
   Zn   1.0     0.749233     0.250733     0.875022  Biso 1.000000    Zn
   Zn   1.0     0.749232     0.750721     0.375011  Biso 1.000000    Zn
   Zn   1.0     0.749229     0.750721     0.875023  Biso 1.000000    Zn
