#======================================================================

# CRYSTAL DATA

#----------------------------------------------------------------------

data_VESTA_phase_1


_pd_phase_name                         MOF
_cell_length_a                         20.25500
_cell_length_b                         18.42100
_cell_length_c                         18.54200
_cell_angle_alpha                      89.99900
_cell_angle_beta                       90.02300
_cell_angle_gamma                      89.94700
_symmetry_space_group_name_H-M         "P 1"
_symmetry_Int_Tables_number            1

loop_
_symmetry_equiv_pos_as_xyz
   "x, y, z"

loop_
   _atom_site_label
   _atom_site_occupancy
   _atom_site_fract_x
   _atom_site_fract_y
   _atom_site_fract_z
   _atom_site_adp_type
   _atom_site_B_iso_or_equiv
   _atom_site_type_symbol
    H   1.0     0.080466     0.863016     0.522081  Biso 1.000000     H
    H   1.0     0.580455     0.863012     0.522078  Biso 1.000000     H
    H   1.0     0.104753     0.877066     0.827769  Biso 1.000000     H
    H   1.0     0.604743     0.877066     0.827772  Biso 1.000000     H
    H   1.0     0.378650     0.007644     0.867068  Biso 1.000000     H
    H   1.0     0.878642     0.007647     0.867067  Biso 1.000000     H
    H   1.0     0.025744     0.147875     0.660274  Biso 1.000000     H
    H   1.0     0.525734     0.147875     0.660275  Biso 1.000000     H
    H   1.0     0.354040     0.755191     0.690196  Biso 1.000000     H
    H   1.0     0.854032     0.755192     0.690187  Biso 1.000000     H
    H   1.0     0.305510     0.990788     0.549460  Biso 1.000000     H
    H   1.0     0.805503     0.990789     0.549460  Biso 1.000000     H
    H   1.0     0.168595     0.365132     0.977716  Biso 1.000000     H
    H   1.0     0.668586     0.365133     0.977715  Biso 1.000000     H
    H   1.0     0.145817     0.376827     0.672105  Biso 1.000000     H
    H   1.0     0.645809     0.376827     0.672105  Biso 1.000000     H
    H   1.0     0.371408     0.507565     0.632949  Biso 1.000000     H
    H   1.0     0.871401     0.507566     0.632949  Biso 1.000000     H
    H   1.0     0.223810     0.648202     0.839784  Biso 1.000000     H
    H   1.0     0.723800     0.648201     0.839785  Biso 1.000000     H
    H   1.0     0.396021     0.255267     0.811149  Biso 1.000000     H
    H   1.0     0.896015     0.255267     0.811148  Biso 1.000000     H
    H   1.0     0.444585     0.490637     0.950488  Biso 1.000000     H
    H   1.0     0.944577     0.490637     0.950488  Biso 1.000000     H
    H   1.0     0.419530     0.636958     0.522017  Biso 1.000000     H
    H   1.0     0.919525     0.636960     0.522016  Biso 1.000000     H
    H   1.0     0.395290     0.622927     0.827743  Biso 1.000000     H
    H   1.0     0.895277     0.622928     0.827737  Biso 1.000000     H
    H   1.0     0.121404     0.492669     0.867068  Biso 1.000000     H
    H   1.0     0.621396     0.492676     0.867070  Biso 1.000000     H
    H   1.0     0.474051     0.352001     0.660249  Biso 1.000000     H
    H   1.0     0.974043     0.352002     0.660249  Biso 1.000000     H
    H   1.0     0.145943     0.744799     0.689882  Biso 1.000000     H
    H   1.0     0.645936     0.744798     0.689880  Biso 1.000000     H
    H   1.0     0.194433     0.509217     0.549485  Biso 1.000000     H
    H   1.0     0.694426     0.509217     0.549485  Biso 1.000000     H
    H   1.0     0.329816     0.136243     0.979270  Biso 1.000000     H
    H   1.0     0.829808     0.136244     0.979271  Biso 1.000000     H
    H   1.0     0.354740     0.123733     0.673401  Biso 1.000000     H
    H   1.0     0.854732     0.123733     0.673401  Biso 1.000000     H
    H   1.0     0.128513     0.992345     0.633093  Biso 1.000000     H
    H   1.0     0.628506     0.992344     0.633093  Biso 1.000000     H
    H   1.0     0.276177     0.852011     0.839734  Biso 1.000000     H
    H   1.0     0.776167     0.852010     0.839733  Biso 1.000000     H
    H   1.0     0.103762     0.245101     0.808979  Biso 1.000000     H
    H   1.0     0.603755     0.245101     0.808978  Biso 1.000000     H
    H   1.0     0.055418     0.009459     0.950552  Biso 1.000000     H
    H   1.0     0.555411     0.009459     0.950552  Biso 1.000000     H
    H   1.0     0.419531     0.136980     0.477915  Biso 1.000000     H
    H   1.0     0.919529     0.136984     0.477919  Biso 1.000000     H
    H   1.0     0.395236     0.122926     0.172228  Biso 1.000000     H
    H   1.0     0.895230     0.122926     0.172228  Biso 1.000000     H
    H   1.0     0.121343     0.992350     0.132924  Biso 1.000000     H
    H   1.0     0.621337     0.992347     0.132925  Biso 1.000000     H
    H   1.0     0.474249     0.852117     0.339720  Biso 1.000000     H
    H   1.0     0.974240     0.852117     0.339720  Biso 1.000000     H
    H   1.0     0.145957     0.244797     0.309840  Biso 1.000000     H
    H   1.0     0.645951     0.244796     0.309851  Biso 1.000000     H
    H   1.0     0.194482     0.009206     0.450532  Biso 1.000000     H
    H   1.0     0.694475     0.009203     0.450531  Biso 1.000000     H
    H   1.0     0.331395     0.634866     0.022273  Biso 1.000000     H
    H   1.0     0.831387     0.634866     0.022272  Biso 1.000000     H
    H   1.0     0.354174     0.623164     0.327891  Biso 1.000000     H
    H   1.0     0.854165     0.623164     0.327894  Biso 1.000000     H
    H   1.0     0.128587     0.492432     0.367045  Biso 1.000000     H
    H   1.0     0.628580     0.492432     0.367045  Biso 1.000000     H
    H   1.0     0.276180     0.351791     0.160210  Biso 1.000000     H
    H   1.0     0.776173     0.351791     0.160210  Biso 1.000000     H
    H   1.0     0.103974     0.744726     0.188854  Biso 1.000000     H
    H   1.0     0.603966     0.744726     0.188853  Biso 1.000000     H
    H   1.0     0.055409     0.509358     0.049504  Biso 1.000000     H
    H   1.0     0.555402     0.509363     0.049504  Biso 1.000000     H
    H   1.0     0.080466     0.363037     0.477975  Biso 1.000000     H
    H   1.0     0.580454     0.363033     0.477978  Biso 1.000000     H
    H   1.0     0.104706     0.377063     0.172253  Biso 1.000000     H
    H   1.0     0.604703     0.377063     0.172257  Biso 1.000000     H
    H   1.0     0.378588     0.507328     0.132929  Biso 1.000000     H
    H   1.0     0.878583     0.507320     0.132925  Biso 1.000000     H
    H   1.0     0.025938     0.647992     0.339744  Biso 1.000000     H
    H   1.0     0.525928     0.647992     0.339743  Biso 1.000000     H
    H   1.0     0.354049     0.255195     0.310123  Biso 1.000000     H
    H   1.0     0.854043     0.255196     0.310125  Biso 1.000000     H
    H   1.0     0.305561     0.490778     0.450508  Biso 1.000000     H
    H   1.0     0.805554     0.490776     0.450509  Biso 1.000000     H
    H   1.0     0.170171     0.863754     0.020729  Biso 1.000000     H
    H   1.0     0.670164     0.863755     0.020730  Biso 1.000000     H
    H   1.0     0.145262     0.876258     0.326601  Biso 1.000000     H
    H   1.0     0.645253     0.876258     0.326600  Biso 1.000000     H
    H   1.0     0.371480     0.007649     0.366902  Biso 1.000000     H
    H   1.0     0.871473     0.007648     0.366902  Biso 1.000000     H
    H   1.0     0.223809     0.147982     0.160259  Biso 1.000000     H
    H   1.0     0.723800     0.147982     0.160259  Biso 1.000000     H
    H   1.0     0.396231     0.754892     0.191020  Biso 1.000000     H
    H   1.0     0.896224     0.754891     0.191022  Biso 1.000000     H
    H   1.0     0.444575     0.990538     0.049444  Biso 1.000000     H
    H   1.0     0.944568     0.990539     0.049444  Biso 1.000000     H
    C   1.0     0.050288     0.859812     0.571469  Biso 1.000000     C
    C   1.0     0.550279     0.859810     0.571468  Biso 1.000000     C
    C   1.0     0.068427     0.865314     0.784687  Biso 1.000000     C
    C   1.0     0.568422     0.865314     0.784685  Biso 1.000000     C
    C   1.0     0.012255     0.094352     0.637667  Biso 1.000000     C
    C   1.0     0.512247     0.094352     0.637666  Biso 1.000000     C
    C   1.0     0.419365     0.002131     0.827943  Biso 1.000000     C
    C   1.0     0.919358     0.002130     0.827943  Biso 1.000000     C
    C   1.0     0.363217     0.814029     0.693904  Biso 1.000000     C
    C   1.0     0.863210     0.814029     0.693900  Biso 1.000000     C
    C   1.0     0.359220     0.987391     0.559637  Biso 1.000000     C
    C   1.0     0.859213     0.987392     0.559637  Biso 1.000000     C
    C   1.0     0.199095     0.361467     0.928606  Biso 1.000000     C
    C   1.0     0.699087     0.361468     0.928605  Biso 1.000000     C
    C   1.0     0.181906     0.365182     0.715477  Biso 1.000000     C
    C   1.0     0.681897     0.365182     0.715479  Biso 1.000000     C
    C   1.0     0.237609     0.594653     0.862207  Biso 1.000000     C
    C   1.0     0.737602     0.594653     0.862207  Biso 1.000000     C
    C   1.0     0.330667     0.502045     0.672026  Biso 1.000000     C
    C   1.0     0.830660     0.502044     0.672026  Biso 1.000000     C
    C   1.0     0.386761     0.314065     0.806739  Biso 1.000000     C
    C   1.0     0.886754     0.314065     0.806739  Biso 1.000000     C
    C   1.0     0.390872     0.487316     0.940329  Biso 1.000000     C
    C   1.0     0.890865     0.487319     0.940329  Biso 1.000000     C
    C   1.0     0.449692     0.640152     0.571445  Biso 1.000000     C
    C   1.0     0.949687     0.640154     0.571443  Biso 1.000000     C
    C   1.0     0.431572     0.634681     0.784653  Biso 1.000000     C
    C   1.0     0.931570     0.634681     0.784657  Biso 1.000000     C
    C   1.0     0.487651     0.405547     0.637757  Biso 1.000000     C
    C   1.0     0.987645     0.405548     0.637757  Biso 1.000000     C
    C   1.0     0.080670     0.498011     0.827912  Biso 1.000000     C
    C   1.0     0.580663     0.498009     0.827911  Biso 1.000000     C
    C   1.0     0.136760     0.685974     0.693796  Biso 1.000000     C
    C   1.0     0.636752     0.685973     0.693795  Biso 1.000000     C
    C   1.0     0.140726     0.512615     0.559625  Biso 1.000000     C
    C   1.0     0.640718     0.512616     0.559624  Biso 1.000000     C
    C   1.0     0.299456     0.140120     0.930052  Biso 1.000000     C
    C   1.0     0.799449     0.140121     0.930052  Biso 1.000000     C
    C   1.0     0.318468     0.134940     0.716664  Biso 1.000000     C
    C   1.0     0.818461     0.134940     0.716664  Biso 1.000000     C
    C   1.0     0.262449     0.905543     0.862220  Biso 1.000000     C
    C   1.0     0.762441     0.905543     0.862220  Biso 1.000000     C
    C   1.0     0.169306     0.997892     0.672136  Biso 1.000000     C
    C   1.0     0.669298     0.997892     0.672136  Biso 1.000000     C
    C   1.0     0.113037     0.186260     0.805284  Biso 1.000000     C
    C   1.0     0.613030     0.186260     0.805284  Biso 1.000000     C
    C   1.0     0.109114     0.012844     0.940373  Biso 1.000000     C
    C   1.0     0.609107     0.012845     0.940373  Biso 1.000000     C
    C   1.0     0.449706     0.140181     0.428525  Biso 1.000000     C
    C   1.0     0.949702     0.140183     0.428527  Biso 1.000000     C
    C   1.0     0.431565     0.134678     0.215308  Biso 1.000000     C
    C   1.0     0.931555     0.134678     0.215311  Biso 1.000000     C
    C   1.0     0.487737     0.905640     0.362327  Biso 1.000000     C
    C   1.0     0.987731     0.905640     0.362328  Biso 1.000000     C
    C   1.0     0.080628     0.997863     0.172049  Biso 1.000000     C
    C   1.0     0.580621     0.997865     0.172049  Biso 1.000000     C
    C   1.0     0.136778     0.185961     0.306111  Biso 1.000000     C
    C   1.0     0.636771     0.185960     0.306116  Biso 1.000000     C
    C   1.0     0.140772     0.012598     0.440356  Biso 1.000000     C
    C   1.0     0.640764     0.012599     0.440356  Biso 1.000000     C
    C   1.0     0.300896     0.638529     0.071385  Biso 1.000000     C
    C   1.0     0.800891     0.638528     0.071386  Biso 1.000000     C
    C   1.0     0.318086     0.634810     0.284518  Biso 1.000000     C
    C   1.0     0.818082     0.634810     0.284516  Biso 1.000000     C
    C   1.0     0.262384     0.405340     0.137786  Biso 1.000000     C
    C   1.0     0.762376     0.405340     0.137786  Biso 1.000000     C
    C   1.0     0.169327     0.497949     0.327967  Biso 1.000000     C
    C   1.0     0.669319     0.497947     0.327967  Biso 1.000000     C
    C   1.0     0.113233     0.685928     0.193258  Biso 1.000000     C
    C   1.0     0.613226     0.685927     0.193259  Biso 1.000000     C
    C   1.0     0.109121     0.512678     0.059664  Biso 1.000000     C
    C   1.0     0.609115     0.512674     0.059664  Biso 1.000000     C
    C   1.0     0.050303     0.359842     0.428548  Biso 1.000000     C
    C   1.0     0.550292     0.359839     0.428551  Biso 1.000000     C
    C   1.0     0.068423     0.365310     0.215342  Biso 1.000000     C
    C   1.0     0.568412     0.365310     0.215338  Biso 1.000000     C
    C   1.0     0.012341     0.594445     0.362236  Biso 1.000000     C
    C   1.0     0.512333     0.594445     0.362236  Biso 1.000000     C
    C   1.0     0.419324     0.501983     0.172083  Biso 1.000000     C
    C   1.0     0.919316     0.501987     0.172085  Biso 1.000000     C
    C   1.0     0.363234     0.314019     0.306199  Biso 1.000000     C
    C   1.0     0.863227     0.314020     0.306200  Biso 1.000000     C
    C   1.0     0.359268     0.487375     0.440369  Biso 1.000000     C
    C   1.0     0.859261     0.487377     0.440369  Biso 1.000000     C
    C   1.0     0.200537     0.859872     0.069943  Biso 1.000000     C
    C   1.0     0.700530     0.859873     0.069943  Biso 1.000000     C
    C   1.0     0.181529     0.865052     0.283333  Biso 1.000000     C
    C   1.0     0.681521     0.865052     0.283332  Biso 1.000000     C
    C   1.0     0.237543     0.094450     0.137775  Biso 1.000000     C
    C   1.0     0.737536     0.094450     0.137775  Biso 1.000000     C
    C   1.0     0.330688     0.002098     0.327859  Biso 1.000000     C
    C   1.0     0.830681     0.002099     0.327859  Biso 1.000000     C
    C   1.0     0.386956     0.813733     0.194712  Biso 1.000000     C
    C   1.0     0.886949     0.813733     0.194712  Biso 1.000000     C
    C   1.0     0.390879     0.987151     0.059622  Biso 1.000000     C
    C   1.0     0.890872     0.987153     0.059622  Biso 1.000000     C
    O   1.0     0.013846     0.916190     0.583841  Biso 1.000000     O
    O   1.0     0.513839     0.916189     0.583841  Biso 1.000000     O
    O   1.0     0.054812     0.804024     0.609420  Biso 1.000000     O
    O   1.0     0.554803     0.804023     0.609419  Biso 1.000000     O
    O   1.0     0.044120     0.921281     0.752892  Biso 1.000000     O
    O   1.0     0.544111     0.921281     0.752893  Biso 1.000000     O
    O   1.0     0.055640     0.800137     0.771885  Biso 1.000000     O
    O   1.0     0.555632     0.800137     0.771886  Biso 1.000000     O
    O   1.0     0.010523     0.041620     0.683160  Biso 1.000000     O
    O   1.0     0.510516     0.041619     0.683160  Biso 1.000000     O
    O   1.0     0.000015     0.090147     0.571678  Biso 1.000000     O
    O   1.0     0.500008     0.090147     0.571678  Biso 1.000000     O
    O   1.0     0.405106     0.972086     0.767422  Biso 1.000000     O
    O   1.0     0.905098     0.972087     0.767421  Biso 1.000000     O
    O   1.0     0.475113     0.025281     0.847124  Biso 1.000000     O
    O   1.0     0.975105     0.025283     0.847123  Biso 1.000000     O
    O   1.0     0.424032     0.833550     0.687687  Biso 1.000000     O
    O   1.0     0.924025     0.833551     0.687686  Biso 1.000000     O
    O   1.0     0.397178     0.990720     0.506345  Biso 1.000000     O
    O   1.0     0.897172     0.990720     0.506345  Biso 1.000000     O
    O   1.0     0.314243     0.854639     0.703625  Biso 1.000000     O
    O   1.0     0.814236     0.854640     0.703623  Biso 1.000000     O
    O   1.0     0.376174     0.980835     0.626295  Biso 1.000000     O
    O   1.0     0.876167     0.980836     0.626295  Biso 1.000000     O
    O   1.0     0.236087     0.417339     0.916320  Biso 1.000000     O
    O   1.0     0.736080     0.417339     0.916320  Biso 1.000000     O
    O   1.0     0.194359     0.305735     0.890654  Biso 1.000000     O
    O   1.0     0.694352     0.305735     0.890654  Biso 1.000000     O
    O   1.0     0.205956     0.421311     0.747222  Biso 1.000000     O
    O   1.0     0.705949     0.421311     0.747221  Biso 1.000000     O
    O   1.0     0.194722     0.300074     0.728611  Biso 1.000000     O
    O   1.0     0.694715     0.300074     0.728610  Biso 1.000000     O
    O   1.0     0.239547     0.542080     0.816529  Biso 1.000000     O
    O   1.0     0.739540     0.542080     0.816529  Biso 1.000000     O
    O   1.0     0.249923     0.590288     0.928166  Biso 1.000000     O
    O   1.0     0.749915     0.590288     0.928166  Biso 1.000000     O
    O   1.0     0.344946     0.472037     0.732586  Biso 1.000000     O
    O   1.0     0.844939     0.472037     0.732585  Biso 1.000000     O
    O   1.0     0.274890     0.525138     0.652800  Biso 1.000000     O
    O   1.0     0.774883     0.525138     0.652800  Biso 1.000000     O
    O   1.0     0.325934     0.333675     0.812950  Biso 1.000000     O
    O   1.0     0.825927     0.333675     0.812950  Biso 1.000000     O
    O   1.0     0.352912     0.490647     0.993621  Biso 1.000000     O
    O   1.0     0.852905     0.490645     0.993621  Biso 1.000000     O
    O   1.0     0.435690     0.354517     0.796544  Biso 1.000000     O
    O   1.0     0.935683     0.354517     0.796544  Biso 1.000000     O
    O   1.0     0.373906     0.480818     0.873675  Biso 1.000000     O
    O   1.0     0.873899     0.480818     0.873675  Biso 1.000000     O
    O   1.0     0.486141     0.583774     0.583837  Biso 1.000000     O
    O   1.0     0.986134     0.583774     0.583837  Biso 1.000000     O
    O   1.0     0.445143     0.695923     0.609410  Biso 1.000000     O
    O   1.0     0.945137     0.695924     0.609410  Biso 1.000000     O
    O   1.0     0.455863     0.578722     0.752861  Biso 1.000000     O
    O   1.0     0.955853     0.578722     0.752858  Biso 1.000000     O
    O   1.0     0.444381     0.699864     0.771881  Biso 1.000000     O
    O   1.0     0.944370     0.699865     0.771877  Biso 1.000000     O
    O   1.0     0.489423     0.458199     0.683340  Biso 1.000000     O
    O   1.0     0.989416     0.458200     0.683339  Biso 1.000000     O
    O   1.0     0.499953     0.409823     0.571798  Biso 1.000000     O
    O   1.0     0.999946     0.409823     0.571798  Biso 1.000000     O
    O   1.0     0.094897     0.527938     0.767329  Biso 1.000000     O
    O   1.0     0.594889     0.527940     0.767330  Biso 1.000000     O
    O   1.0     0.024957     0.474852     0.847118  Biso 1.000000     O
    O   1.0     0.524950     0.474855     0.847120  Biso 1.000000     O
    O   1.0     0.075930     0.666447     0.687652  Biso 1.000000     O
    O   1.0     0.575923     0.666446     0.687652  Biso 1.000000     O
    O   1.0     0.102768     0.509258     0.506293  Biso 1.000000     O
    O   1.0     0.602761     0.509258     0.506293  Biso 1.000000     O
    O   1.0     0.185748     0.645370     0.703458  Biso 1.000000     O
    O   1.0     0.685741     0.645370     0.703457  Biso 1.000000     O
    O   1.0     0.123759     0.519175     0.626250  Biso 1.000000     O
    O   1.0     0.623752     0.519174     0.626250  Biso 1.000000     O
    O   1.0     0.263779     0.083536     0.916412  Biso 1.000000     O
    O   1.0     0.763772     0.083536     0.916412  Biso 1.000000     O
    O   1.0     0.303124     0.196884     0.893473  Biso 1.000000     O
    O   1.0     0.803116     0.196884     0.893474  Biso 1.000000     O
    O   1.0     0.293925     0.078567     0.747412  Biso 1.000000     O
    O   1.0     0.793918     0.078567     0.747413  Biso 1.000000     O
    O   1.0     0.305924     0.199900     0.730737  Biso 1.000000     O
    O   1.0     0.805917     0.199900     0.730737  Biso 1.000000     O
    O   1.0     0.260533     0.958202     0.816670  Biso 1.000000     O
    O   1.0     0.760526     0.958202     0.816670  Biso 1.000000     O
    O   1.0     0.250157     0.909819     0.928188  Biso 1.000000     O
    O   1.0     0.750150     0.909819     0.928188  Biso 1.000000     O
    O   1.0     0.155073     0.027857     0.732723  Biso 1.000000     O
    O   1.0     0.655066     0.027856     0.732723  Biso 1.000000     O
    O   1.0     0.225073     0.974863     0.652845  Biso 1.000000     O
    O   1.0     0.725066     0.974863     0.652845  Biso 1.000000     O
    O   1.0     0.173762     0.166663     0.812697  Biso 1.000000     O
    O   1.0     0.673755     0.166663     0.812696  Biso 1.000000     O
    O   1.0     0.147137     0.009290     0.993634  Biso 1.000000     O
    O   1.0     0.647130     0.009289     0.993634  Biso 1.000000     O
    O   1.0     0.064241     0.145739     0.794535  Biso 1.000000     O
    O   1.0     0.564235     0.145739     0.794534  Biso 1.000000     O
    O   1.0     0.126000     0.019588     0.873733  Biso 1.000000     O
    O   1.0     0.625992     0.019589     0.873733  Biso 1.000000     O
    O   1.0     0.486147     0.083803     0.416152  Biso 1.000000     O
    O   1.0     0.986141     0.083804     0.416153  Biso 1.000000     O
    O   1.0     0.445182     0.195969     0.390574  Biso 1.000000     O
    O   1.0     0.945178     0.195971     0.390575  Biso 1.000000     O
    O   1.0     0.455873     0.078711     0.247101  Biso 1.000000     O
    O   1.0     0.955868     0.078711     0.247100  Biso 1.000000     O
    O   1.0     0.444353     0.199855     0.228109  Biso 1.000000     O
    O   1.0     0.944348     0.199855     0.228108  Biso 1.000000     O
    O   1.0     0.489470     0.958372     0.316834  Biso 1.000000     O
    O   1.0     0.989462     0.958373     0.316834  Biso 1.000000     O
    O   1.0     0.499978     0.909845     0.428315  Biso 1.000000     O
    O   1.0     0.999971     0.909845     0.428316  Biso 1.000000     O
    O   1.0     0.094888     0.027906     0.232571  Biso 1.000000     O
    O   1.0     0.594881     0.027905     0.232572  Biso 1.000000     O
    O   1.0     0.024881     0.974710     0.152870  Biso 1.000000     O
    O   1.0     0.524874     0.974708     0.152870  Biso 1.000000     O
    O   1.0     0.075961     0.166441     0.312309  Biso 1.000000     O
    O   1.0     0.575954     0.166440     0.312310  Biso 1.000000     O
    O   1.0     0.102815     0.009274     0.493649  Biso 1.000000     O
    O   1.0     0.602807     0.009272     0.493649  Biso 1.000000     O
    O   1.0     0.185751     0.145351     0.296379  Biso 1.000000     O
    O   1.0     0.685743     0.145350     0.296381  Biso 1.000000     O
    O   1.0     0.123816     0.019156     0.373698  Biso 1.000000     O
    O   1.0     0.623809     0.019154     0.373698  Biso 1.000000     O
    O   1.0     0.263905     0.582657     0.083672  Biso 1.000000     O
    O   1.0     0.763898     0.582657     0.083671  Biso 1.000000     O
    O   1.0     0.305635     0.694260     0.109339  Biso 1.000000     O
    O   1.0     0.805627     0.694260     0.109338  Biso 1.000000     O
    O   1.0     0.294038     0.578682     0.252771  Biso 1.000000     O
    O   1.0     0.794029     0.578681     0.252773  Biso 1.000000     O
    O   1.0     0.305272     0.699919     0.271383  Biso 1.000000     O
    O   1.0     0.805263     0.699918     0.271385  Biso 1.000000     O
    O   1.0     0.260449     0.457915     0.183462  Biso 1.000000     O
    O   1.0     0.760442     0.457915     0.183462  Biso 1.000000     O
    O   1.0     0.250071     0.409704     0.071827  Biso 1.000000     O
    O   1.0     0.750064     0.409704     0.071826  Biso 1.000000     O
    O   1.0     0.155048     0.527955     0.267407  Biso 1.000000     O
    O   1.0     0.655041     0.527955     0.267407  Biso 1.000000     O
    O   1.0     0.225104     0.474854     0.347193  Biso 1.000000     O
    O   1.0     0.725097     0.474855     0.347193  Biso 1.000000     O
    O   1.0     0.174060     0.666318     0.187044  Biso 1.000000     O
    O   1.0     0.674053     0.666317     0.187044  Biso 1.000000     O
    O   1.0     0.147082     0.509345     0.006372  Biso 1.000000     O
    O   1.0     0.647075     0.509349     0.006372  Biso 1.000000     O
    O   1.0     0.064304     0.645476     0.203451  Biso 1.000000     O
    O   1.0     0.564297     0.645475     0.203450  Biso 1.000000     O
    O   1.0     0.126088     0.519174     0.126318  Biso 1.000000     O
    O   1.0     0.626081     0.519176     0.126318  Biso 1.000000     O
    O   1.0     0.013853     0.416220     0.416156  Biso 1.000000     O
    O   1.0     0.513846     0.416219     0.416156  Biso 1.000000     O
    O   1.0     0.054851     0.304071     0.390583  Biso 1.000000     O
    O   1.0     0.554843     0.304070     0.390583  Biso 1.000000     O
    O   1.0     0.044131     0.421269     0.247133  Biso 1.000000     O
    O   1.0     0.544127     0.421269     0.247135  Biso 1.000000     O
    O   1.0     0.055614     0.300127     0.228113  Biso 1.000000     O
    O   1.0     0.555610     0.300126     0.228116  Biso 1.000000     O
    O   1.0     0.010570     0.541793     0.316654  Biso 1.000000     O
    O   1.0     0.510563     0.541792     0.316654  Biso 1.000000     O
    O   1.0     0.000040     0.590169     0.428195  Biso 1.000000     O
    O   1.0     0.500033     0.590169     0.428195  Biso 1.000000     O
    O   1.0     0.405097     0.472055     0.232665  Biso 1.000000     O
    O   1.0     0.905091     0.472052     0.232664  Biso 1.000000     O
    O   1.0     0.475037     0.525139     0.152875  Biso 1.000000     O
    O   1.0     0.975031     0.525135     0.152873  Biso 1.000000     O
    O   1.0     0.424063     0.333545     0.312343  Biso 1.000000     O
    O   1.0     0.924057     0.333546     0.312343  Biso 1.000000     O
    O   1.0     0.397226     0.490735     0.493700  Biso 1.000000     O
    O   1.0     0.897219     0.490734     0.493701  Biso 1.000000     O
    O   1.0     0.314246     0.354623     0.296538  Biso 1.000000     O
    O   1.0     0.814239     0.354623     0.296539  Biso 1.000000     O
    O   1.0     0.376235     0.480818     0.373743  Biso 1.000000     O
    O   1.0     0.876227     0.480817     0.373744  Biso 1.000000     O
    O   1.0     0.236212     0.916458     0.083584  Biso 1.000000     O
    O   1.0     0.736205     0.916458     0.083585  Biso 1.000000     O
    O   1.0     0.196868     0.803110     0.106522  Biso 1.000000     O
    O   1.0     0.696861     0.803110     0.106522  Biso 1.000000     O
    O   1.0     0.206067     0.921425     0.252581  Biso 1.000000     O
    O   1.0     0.706061     0.921425     0.252581  Biso 1.000000     O
    O   1.0     0.194071     0.800091     0.269257  Biso 1.000000     O
    O   1.0     0.694064     0.800091     0.269257  Biso 1.000000     O
    O   1.0     0.239462     0.041793     0.183327  Biso 1.000000     O
    O   1.0     0.739455     0.041793     0.183328  Biso 1.000000     O
    O   1.0     0.249835     0.090172     0.071807  Biso 1.000000     O
    O   1.0     0.749827     0.090172     0.071807  Biso 1.000000     O
    O   1.0     0.344921     0.972134     0.267272  Biso 1.000000     O
    O   1.0     0.844914     0.972134     0.267273  Biso 1.000000     O
    O   1.0     0.274920     0.025129     0.347149  Biso 1.000000     O
    O   1.0     0.774913     0.025129     0.347149  Biso 1.000000     O
    O   1.0     0.326232     0.833330     0.187298  Biso 1.000000     O
    O   1.0     0.826225     0.833330     0.187298  Biso 1.000000     O
    O   1.0     0.352856     0.990702     0.006360  Biso 1.000000     O
    O   1.0     0.852849     0.990702     0.006360  Biso 1.000000     O
    O   1.0     0.435752     0.854254     0.205458  Biso 1.000000     O
    O   1.0     0.935745     0.854253     0.205460  Biso 1.000000     O
    O   1.0     0.373993     0.980405     0.126261  Biso 1.000000     O
    O   1.0     0.873986     0.980404     0.126261  Biso 1.000000     O
   Zn   1.0     0.464161     0.937624     0.678144  Biso 1.000000    Zn
   Zn   1.0     0.964154     0.937624     0.678144  Biso 1.000000    Zn
   Zn   1.0     0.058685     0.034309     0.784438  Biso 1.000000    Zn
   Zn   1.0     0.558678     0.034310     0.784438  Biso 1.000000    Zn
   Zn   1.0     0.285864     0.437809     0.821775  Biso 1.000000    Zn
   Zn   1.0     0.785857     0.437809     0.821775  Biso 1.000000    Zn
   Zn   1.0     0.191269     0.534224     0.715434  Biso 1.000000    Zn
   Zn   1.0     0.691261     0.534224     0.715434  Biso 1.000000    Zn
   Zn   1.0     0.035809     0.562327     0.678170  Biso 1.000000    Zn
   Zn   1.0     0.535802     0.562326     0.678170  Biso 1.000000    Zn
   Zn   1.0     0.441280     0.465724     0.784523  Biso 1.000000    Zn
   Zn   1.0     0.941273     0.465724     0.784522  Biso 1.000000    Zn
   Zn   1.0     0.214084     0.062402     0.821860  Biso 1.000000    Zn
   Zn   1.0     0.714077     0.062402     0.821860  Biso 1.000000    Zn
   Zn   1.0     0.308727     0.965756     0.715429  Biso 1.000000    Zn
   Zn   1.0     0.808720     0.965756     0.715429  Biso 1.000000    Zn
   Zn   1.0     0.035832     0.062368     0.321849  Biso 1.000000    Zn
   Zn   1.0     0.535825     0.062367     0.321849  Biso 1.000000    Zn
   Zn   1.0     0.441309     0.965682     0.215556  Biso 1.000000    Zn
   Zn   1.0     0.941302     0.965682     0.215556  Biso 1.000000    Zn
   Zn   1.0     0.214130     0.562183     0.178218  Biso 1.000000    Zn
   Zn   1.0     0.714123     0.562183     0.178218  Biso 1.000000    Zn
   Zn   1.0     0.308725     0.465768     0.284559  Biso 1.000000    Zn
   Zn   1.0     0.808718     0.465768     0.284559  Biso 1.000000    Zn
   Zn   1.0     0.464185     0.437665     0.321823  Biso 1.000000    Zn
   Zn   1.0     0.964178     0.437666     0.321823  Biso 1.000000    Zn
   Zn   1.0     0.058714     0.534267     0.215471  Biso 1.000000    Zn
   Zn   1.0     0.558707     0.534267     0.215471  Biso 1.000000    Zn
   Zn   1.0     0.285910     0.937591     0.178134  Biso 1.000000    Zn
   Zn   1.0     0.785903     0.937591     0.178135  Biso 1.000000    Zn
   Zn   1.0     0.191266     0.034236     0.284565  Biso 1.000000    Zn
   Zn   1.0     0.691259     0.034236     0.284565  Biso 1.000000    Zn
   Zn   1.0     0.999986     0.749971     0.690271  Biso 1.000000    Zn
   Zn   1.0     0.499993     0.749971     0.690271  Biso 1.000000    Zn
   Zn   1.0     0.249768     0.250216     0.811910  Biso 1.000000    Zn
   Zn   1.0     0.749761     0.250216     0.811910  Biso 1.000000    Zn
   Zn   1.0     0.000001     0.250021     0.309722  Biso 1.000000    Zn
   Zn   1.0     0.499994     0.250020     0.309723  Biso 1.000000    Zn
   Zn   1.0     0.250226     0.749776     0.188083  Biso 1.000000    Zn
   Zn   1.0     0.750219     0.749776     0.188083  Biso 1.000000    Zn
   Zn   1.0    -0.000001     0.000001     0.499997  Biso 1.000000    Zn
   Zn   1.0     0.499992     0.000001     0.499997  Biso 1.000000    Zn
   Zn   1.0     0.249996     0.499997     0.999993  Biso 1.000000    Zn
   Zn   1.0     0.749991     0.499995     0.000000  Biso 1.000000    Zn
   Zn   1.0     0.000000     0.499996     0.499997  Biso 1.000000    Zn
   Zn   1.0     0.499993     0.499996     0.499997  Biso 1.000000    Zn
   Zn   1.0     0.249996     0.000000     0.000000  Biso 1.000000    Zn
   Zn   1.0     0.749990     0.000000     0.000000  Biso 1.000000    Zn
