#======================================================================

# CRYSTAL DATA

#----------------------------------------------------------------------

data_VESTA_phase_1


_pd_phase_name                         MOF
_cell_length_a                         12.65700
_cell_length_b                         27.20300
_cell_length_c                         14.66600
_cell_angle_alpha                      90.01800
_cell_angle_beta                       90.08800
_cell_angle_gamma                      95.76100
_symmetry_space_group_name_H-M         "P 1"
_symmetry_Int_Tables_number            1

loop_
_symmetry_equiv_pos_as_xyz
   "x, y, z"

loop_
   _atom_site_label
   _atom_site_occupancy
   _atom_site_fract_x
   _atom_site_fract_y
   _atom_site_fract_z
   _atom_site_adp_type
   _atom_site_B_iso_or_equiv
   _atom_site_type_symbol
    H   1.0     0.100314     0.368685     0.747815  Biso 1.000000     H
    H   1.0     0.100315     0.868689     0.747813  Biso 1.000000     H
    H   1.0     0.600319     0.368680     0.747815  Biso 1.000000     H
    H   1.0     0.600315     0.868689     0.747821  Biso 1.000000     H
    H   1.0     0.418868     0.436521     0.700884  Biso 1.000000     H
    H   1.0     0.418864     0.936534     0.700901  Biso 1.000000     H
    H   1.0     0.918873     0.436515     0.700882  Biso 1.000000     H
    H   1.0     0.918870     0.936522     0.700882  Biso 1.000000     H
    H   1.0     0.478612     0.382449     0.824757  Biso 1.000000     H
    H   1.0     0.478608     0.882466     0.824777  Biso 1.000000     H
    H   1.0     0.978618     0.382443     0.824754  Biso 1.000000     H
    H   1.0     0.978616     0.882450     0.824753  Biso 1.000000     H
    H   1.0     0.153477     0.381150     0.247905  Biso 1.000000     H
    H   1.0     0.153473     0.881153     0.247904  Biso 1.000000     H
    H   1.0     0.653486     0.381157     0.247902  Biso 1.000000     H
    H   1.0     0.653484     0.881159     0.247904  Biso 1.000000     H
    H   1.0     0.334950     0.313046     0.200890  Biso 1.000000     H
    H   1.0     0.334949     0.813049     0.200884  Biso 1.000000     H
    H   1.0     0.834952     0.313047     0.200884  Biso 1.000000     H
    H   1.0     0.834949     0.813049     0.200884  Biso 1.000000     H
    H   1.0     0.275449     0.367066     0.324778  Biso 1.000000     H
    H   1.0     0.275445     0.867070     0.324770  Biso 1.000000     H
    H   1.0     0.775454     0.367069     0.324772  Biso 1.000000     H
    H   1.0     0.775450     0.867070     0.324772  Biso 1.000000     H
    H   1.0     0.403871     0.131064     0.252856  Biso 1.000000     H
    H   1.0     0.403869     0.631068     0.252854  Biso 1.000000     H
    H   1.0     0.903899     0.131058     0.252847  Biso 1.000000     H
    H   1.0     0.903893     0.631064     0.252849  Biso 1.000000     H
    H   1.0     0.085078     0.063562     0.299764  Biso 1.000000     H
    H   1.0     0.085073     0.563571     0.299771  Biso 1.000000     H
    H   1.0     0.585092     0.063591     0.299831  Biso 1.000000     H
    H   1.0     0.585086     0.563597     0.299830  Biso 1.000000     H
    H   1.0     0.025674     0.117434     0.175355  Biso 1.000000     H
    H   1.0     0.025669     0.617442     0.175361  Biso 1.000000     H
    H   1.0     0.525680     0.117467     0.175431  Biso 1.000000     H
    H   1.0     0.525676     0.617471     0.175426  Biso 1.000000     H
    H   1.0     0.350584     0.118649     0.752518  Biso 1.000000     H
    H   1.0     0.350581     0.618658     0.752511  Biso 1.000000     H
    H   1.0     0.850606     0.118644     0.752523  Biso 1.000000     H
    H   1.0     0.850601     0.618651     0.752518  Biso 1.000000     H
    H   1.0     0.169049     0.186791     0.799726  Biso 1.000000     H
    H   1.0     0.169041     0.686805     0.799706  Biso 1.000000     H
    H   1.0     0.669052     0.186771     0.799774  Biso 1.000000     H
    H   1.0     0.669045     0.686790     0.799747  Biso 1.000000     H
    H   1.0     0.228684     0.132789     0.675833  Biso 1.000000     H
    H   1.0     0.228677     0.632803     0.675815  Biso 1.000000     H
    H   1.0     0.728692     0.132768     0.675885  Biso 1.000000     H
    H   1.0     0.728686     0.632786     0.675861  Biso 1.000000     H
    C   1.0     0.225441     0.343637     0.829619  Biso 1.000000     C
    C   1.0     0.225439     0.843646     0.829626  Biso 1.000000     C
    C   1.0     0.725446     0.343632     0.829618  Biso 1.000000     C
    C   1.0     0.725444     0.843640     0.829621  Biso 1.000000     C
    C   1.0     0.210557     0.440607     0.645349  Biso 1.000000     C
    C   1.0     0.210554     0.940612     0.645350  Biso 1.000000     C
    C   1.0     0.710563     0.440602     0.645348  Biso 1.000000     C
    C   1.0     0.710559     0.940608     0.645350  Biso 1.000000     C
    C   1.0     0.184793     0.372815     0.762641  Biso 1.000000     C
    C   1.0     0.184793     0.872822     0.762645  Biso 1.000000     C
    C   1.0     0.684799     0.372810     0.762641  Biso 1.000000     C
    C   1.0     0.684795     0.872819     0.762645  Biso 1.000000     C
    C   1.0     0.361586     0.410600     0.736066  Biso 1.000000     C
    C   1.0     0.361583     0.910612     0.736080  Biso 1.000000     C
    C   1.0     0.861592     0.410594     0.736065  Biso 1.000000     C
    C   1.0     0.861589     0.910601     0.736065  Biso 1.000000     C
    C   1.0     0.253423     0.406895     0.714567  Biso 1.000000     C
    C   1.0     0.253422     0.906903     0.714573  Biso 1.000000     C
    C   1.0     0.753429     0.406889     0.714566  Biso 1.000000     C
    C   1.0     0.753425     0.906897     0.714568  Biso 1.000000     C
    C   1.0     0.152999     0.307857     0.885864  Biso 1.000000     C
    C   1.0     0.152997     0.807864     0.885866  Biso 1.000000     C
    C   1.0     0.653005     0.307852     0.885863  Biso 1.000000     C
    C   1.0     0.653002     0.807860     0.885865  Biso 1.000000     C
    C   1.0     0.395522     0.380399     0.804706  Biso 1.000000     C
    C   1.0     0.395519     0.880412     0.804723  Biso 1.000000     C
    C   1.0     0.895528     0.380393     0.804704  Biso 1.000000     C
    C   1.0     0.895526     0.880400     0.804705  Biso 1.000000     C
    C   1.0     0.028535     0.406096     0.329696  Biso 1.000000     C
    C   1.0     0.028530     0.906099     0.329696  Biso 1.000000     C
    C   1.0     0.528543     0.406099     0.329697  Biso 1.000000     C
    C   1.0     0.528539     0.906102     0.329695  Biso 1.000000     C
    C   1.0     0.043327     0.309104     0.145365  Biso 1.000000     C
    C   1.0     0.043326     0.809108     0.145364  Biso 1.000000     C
    C   1.0     0.543341     0.309110     0.145364  Biso 1.000000     C
    C   1.0     0.543343     0.809111     0.145365  Biso 1.000000     C
    C   1.0     0.069050     0.376934     0.262703  Biso 1.000000     C
    C   1.0     0.069045     0.876937     0.262703  Biso 1.000000     C
    C   1.0     0.569059     0.376939     0.262703  Biso 1.000000     C
    C   1.0     0.569057     0.876941     0.262703  Biso 1.000000     C
    C   1.0     0.392308     0.339009     0.236075  Biso 1.000000     C
    C   1.0     0.392306     0.839012     0.236069  Biso 1.000000     C
    C   1.0     0.892312     0.339008     0.236071  Biso 1.000000     C
    C   1.0     0.892308     0.839010     0.236071  Biso 1.000000     C
    C   1.0     0.000403     0.342772     0.214598  Biso 1.000000     C
    C   1.0     0.000399     0.842775     0.214597  Biso 1.000000     C
    C   1.0     0.500414     0.342776     0.214599  Biso 1.000000     C
    C   1.0     0.500413     0.842778     0.214597  Biso 1.000000     C
    C   1.0     0.101112     0.441925     0.385981  Biso 1.000000     C
    C   1.0     0.101107     0.941927     0.385981  Biso 1.000000     C
    C   1.0     0.601120     0.441928     0.385982  Biso 1.000000     C
    C   1.0     0.601115     0.941930     0.385981  Biso 1.000000     C
    C   1.0     0.358490     0.369194     0.304755  Biso 1.000000     C
    C   1.0     0.358486     0.869197     0.304749  Biso 1.000000     C
    C   1.0     0.858495     0.369194     0.304750  Biso 1.000000     C
    C   1.0     0.858491     0.869196     0.304750  Biso 1.000000     C
    C   1.0     0.278951     0.156077     0.170676  Biso 1.000000     C
    C   1.0     0.278947     0.656082     0.170676  Biso 1.000000     C
    C   1.0     0.778967     0.156084     0.170698  Biso 1.000000     C
    C   1.0     0.778962     0.656089     0.170695  Biso 1.000000     C
    C   1.0     0.292596     0.059498     0.356180  Biso 1.000000     C
    C   1.0     0.292592     0.559503     0.356181  Biso 1.000000     C
    C   1.0     0.792614     0.059501     0.356196  Biso 1.000000     C
    C   1.0     0.792609     0.559507     0.356197  Biso 1.000000     C
    C   1.0     0.319424     0.126945     0.237868  Biso 1.000000     C
    C   1.0     0.319421     0.626950     0.237868  Biso 1.000000     C
    C   1.0     0.819446     0.126949     0.237881  Biso 1.000000     C
    C   1.0     0.819441     0.626954     0.237881  Biso 1.000000     C
    C   1.0     0.142464     0.089337     0.264371  Biso 1.000000     C
    C   1.0     0.142460     0.589345     0.264377  Biso 1.000000     C
    C   1.0     0.642478     0.089361     0.264427  Biso 1.000000     C
    C   1.0     0.642473     0.589366     0.264425  Biso 1.000000     C
    C   1.0     0.250583     0.093012     0.286085  Biso 1.000000     C
    C   1.0     0.250580     0.593018     0.286088  Biso 1.000000     C
    C   1.0     0.750604     0.093023     0.286114  Biso 1.000000     C
    C   1.0     0.750598     0.593029     0.286115  Biso 1.000000     C
    C   1.0     0.351403     0.191859     0.114395  Biso 1.000000     C
    C   1.0     0.351399     0.691863     0.114393  Biso 1.000000     C
    C   1.0     0.851416     0.191858     0.114399  Biso 1.000000     C
    C   1.0     0.851411     0.691863     0.114397  Biso 1.000000     C
    C   1.0     0.108732     0.119434     0.195499  Biso 1.000000     C
    C   1.0     0.108728     0.619441     0.195504  Biso 1.000000     C
    C   1.0     0.608742     0.119459     0.195559  Biso 1.000000     C
    C   1.0     0.608737     0.619463     0.195556  Biso 1.000000     C
    C   1.0     0.475621     0.093706     0.670829  Biso 1.000000     C
    C   1.0     0.475617     0.593716     0.670820  Biso 1.000000     C
    C   1.0     0.975635     0.093709     0.670816  Biso 1.000000     C
    C   1.0     0.975630     0.593717     0.670809  Biso 1.000000     C
    C   1.0     0.460692     0.190706     0.855068  Biso 1.000000     C
    C   1.0     0.460689     0.690718     0.855057  Biso 1.000000     C
    C   1.0     0.960707     0.190709     0.855053  Biso 1.000000     C
    C   1.0     0.960702     0.690718     0.855045  Biso 1.000000     C
    C   1.0     0.435029     0.122860     0.737790  Biso 1.000000     C
    C   1.0     0.435025     0.622871     0.737780  Biso 1.000000     C
    C   1.0     0.935047     0.122861     0.737781  Biso 1.000000     C
    C   1.0     0.935041     0.622870     0.737773  Biso 1.000000     C
    C   1.0     0.111761     0.160805     0.764514  Biso 1.000000     C
    C   1.0     0.111755     0.660818     0.764497  Biso 1.000000     C
    C   1.0     0.611764     0.160790     0.764552  Biso 1.000000     C
    C   1.0     0.611759     0.660806     0.764530  Biso 1.000000     C
    C   1.0     0.503646     0.157007     0.785948  Biso 1.000000     C
    C   1.0     0.503642     0.657021     0.785932  Biso 1.000000     C
    C   1.0     0.000000     0.157015     0.785927  Biso 1.000000     C
    C   1.0     0.000000     0.657025     0.785915  Biso 1.000000     C
    C   1.0     0.403095     0.057877     0.614514  Biso 1.000000     C
    C   1.0     0.403091     0.557884     0.614512  Biso 1.000000     C
    C   1.0     0.903106     0.057876     0.614512  Biso 1.000000     C
    C   1.0     0.903101     0.557881     0.614511  Biso 1.000000     C
    C   1.0     0.145639     0.130633     0.695845  Biso 1.000000     C
    C   1.0     0.145633     0.630645     0.695830  Biso 1.000000     C
    C   1.0     0.645645     0.130618     0.695886  Biso 1.000000     C
    C   1.0     0.645639     0.630633     0.695865  Biso 1.000000     C
    N   1.0     0.330155     0.346906     0.850234  Biso 1.000000     N
    N   1.0     0.330153     0.846917     0.850246  Biso 1.000000     N
    N   1.0     0.830161     0.346900     0.850232  Biso 1.000000     N
    N   1.0     0.830159     0.846908     0.850233  Biso 1.000000     N
    N   1.0     0.423898     0.402744     0.350340  Biso 1.000000     N
    N   1.0     0.423893     0.902747     0.350335  Biso 1.000000     N
    N   1.0     0.923905     0.402744     0.350335  Biso 1.000000     N
    N   1.0     0.923900     0.902746     0.350336  Biso 1.000000     N
    N   1.0     0.174269     0.152844     0.149944  Biso 1.000000     N
    N   1.0     0.174265     0.652850     0.149946  Biso 1.000000     N
    N   1.0     0.674281     0.152861     0.149986  Biso 1.000000     N
    N   1.0     0.674276     0.652865     0.149983  Biso 1.000000     N
    N   1.0     0.080277     0.097071     0.650251  Biso 1.000000     N
    N   1.0     0.080271     0.597080     0.650241  Biso 1.000000     N
    N   1.0     0.580282     0.097061     0.650279  Biso 1.000000     N
    N   1.0     0.580277     0.597073     0.650265  Biso 1.000000     N
    O   1.0     0.199016     0.280578     0.941986  Biso 1.000000     O
    O   1.0     0.199013     0.780584     0.941988  Biso 1.000000     O
    O   1.0     0.699021     0.280572     0.941983  Biso 1.000000     O
    O   1.0     0.699019     0.780580     0.941986  Biso 1.000000     O
    O   1.0     0.264574     0.450587     0.573158  Biso 1.000000     O
    O   1.0     0.264570     0.950590     0.573159  Biso 1.000000     O
    O   1.0     0.764580     0.450581     0.573158  Biso 1.000000     O
    O   1.0     0.764574     0.950587     0.573158  Biso 1.000000     O
    O   1.0     0.124686     0.458668     0.663906  Biso 1.000000     O
    O   1.0     0.124683     0.958672     0.663906  Biso 1.000000     O
    O   1.0     0.624695     0.458665     0.663907  Biso 1.000000     O
    O   1.0     0.624689     0.958670     0.663907  Biso 1.000000     O
    O   1.0     0.054456     0.308019     0.874879  Biso 1.000000     O
    O   1.0     0.054454     0.808025     0.874879  Biso 1.000000     O
    O   1.0     0.554462     0.308016     0.874878  Biso 1.000000     O
    O   1.0     0.554459     0.808023     0.874879  Biso 1.000000     O
    O   1.0     0.055222     0.469086     0.442262  Biso 1.000000     O
    O   1.0     0.055217     0.969088     0.442262  Biso 1.000000     O
    O   1.0     0.555231     0.469088     0.442265  Biso 1.000000     O
    O   1.0     0.555225     0.969090     0.442264  Biso 1.000000     O
    O   1.0    -0.010880     0.298943     0.073186  Biso 1.000000     O
    O   1.0    -0.010879     0.798947     0.073184  Biso 1.000000     O
    O   1.0     0.489142     0.298954     0.073180  Biso 1.000000     O
    O   1.0     0.489148     0.798955     0.073178  Biso 1.000000     O
    O   1.0     0.129573     0.291287     0.163838  Biso 1.000000     O
    O   1.0     0.129570     0.791289     0.163839  Biso 1.000000     O
    O   1.0     0.629583     0.291290     0.163841  Biso 1.000000     O
    O   1.0     0.629584     0.791292     0.163843  Biso 1.000000     O
    O   1.0     0.199642     0.441884     0.374854  Biso 1.000000     O
    O   1.0     0.199637     0.941887     0.374853  Biso 1.000000     O
    O   1.0     0.699649     0.441886     0.374855  Biso 1.000000     O
    O   1.0     0.699644     0.941888     0.374855  Biso 1.000000     O
    O   1.0     0.305363     0.219091     0.058208  Biso 1.000000     O
    O   1.0     0.305360     0.719096     0.058207  Biso 1.000000     O
    O   1.0     0.805372     0.219087     0.058208  Biso 1.000000     O
    O   1.0     0.805369     0.719092     0.058206  Biso 1.000000     O
    O   1.0     0.236792     0.049468     0.427322  Biso 1.000000     O
    O   1.0     0.236789     0.549473     0.427324  Biso 1.000000     O
    O   1.0     0.736815     0.049468     0.427340  Biso 1.000000     O
    O   1.0     0.736809     0.549474     0.427341  Biso 1.000000     O
    O   1.0     0.379222     0.041655     0.339364  Biso 1.000000     O
    O   1.0     0.379217     0.541659     0.339364  Biso 1.000000     O
    O   1.0     0.879234     0.041655     0.339368  Biso 1.000000     O
    O   1.0     0.879227     0.541660     0.339369  Biso 1.000000     O
    O   1.0     0.449955     0.191774     0.125408  Biso 1.000000     O
    O   1.0     0.449952     0.691777     0.125404  Biso 1.000000     O
    O   1.0     0.949969     0.191772     0.125403  Biso 1.000000     O
    O   1.0     0.949965     0.691776     0.125401  Biso 1.000000     O
    O   1.0     0.448981     0.030541     0.558507  Biso 1.000000     O
    O   1.0     0.448977     0.530546     0.558507  Biso 1.000000     O
    O   1.0     0.948989     0.030536     0.558509  Biso 1.000000     O
    O   1.0     0.948984     0.530540     0.558510  Biso 1.000000     O
    O   1.0     0.514543     0.200710     0.927502  Biso 1.000000     O
    O   1.0     0.514544     0.700721     0.927489  Biso 1.000000     O
    O   1.0     0.000000     0.200715     0.927483  Biso 1.000000     O
    O   1.0     0.000000     0.700723     0.927473  Biso 1.000000     O
    O   1.0     0.374774     0.208715     0.836221  Biso 1.000000     O
    O   1.0     0.374765     0.708723     0.836219  Biso 1.000000     O
    O   1.0     0.874780     0.208713     0.836216  Biso 1.000000     O
    O   1.0     0.874773     0.708721     0.836214  Biso 1.000000     O
    O   1.0     0.304573     0.058060     0.625320  Biso 1.000000     O
    O   1.0     0.304569     0.558065     0.625321  Biso 1.000000     O
    O   1.0     0.804585     0.058058     0.625324  Biso 1.000000     O
    O   1.0     0.804580     0.558062     0.625325  Biso 1.000000     O
   Ca   1.0     0.389743     0.275247     0.945156  Biso 1.000000    Ca
   Ca   1.0     0.389740     0.775254     0.945157  Biso 1.000000    Ca
   Ca   1.0     0.889750     0.275243     0.945154  Biso 1.000000    Ca
   Ca   1.0     0.889746     0.775250     0.945153  Biso 1.000000    Ca
   Ca   1.0     0.364365     0.474309     0.445634  Biso 1.000000    Ca
   Ca   1.0     0.364360     0.974311     0.445633  Biso 1.000000    Ca
   Ca   1.0     0.864372     0.474307     0.445635  Biso 1.000000    Ca
   Ca   1.0     0.864367     0.974309     0.445634  Biso 1.000000    Ca
   Ca   1.0     0.114595     0.224531     0.055193  Biso 1.000000    Ca
   Ca   1.0     0.114590     0.724536     0.055190  Biso 1.000000    Ca
   Ca   1.0     0.614603     0.224533     0.055203  Biso 1.000000    Ca
   Ca   1.0     0.614599     0.724537     0.055197  Biso 1.000000    Ca
   Ca   1.0     0.139533     0.025340     0.555434  Biso 1.000000    Ca
   Ca   1.0     0.139529     0.525344     0.555436  Biso 1.000000    Ca
   Ca   1.0     0.639541     0.025339     0.555443  Biso 1.000000    Ca
   Ca   1.0     0.639537     0.525344     0.555444  Biso 1.000000    Ca
