#======================================================================

# CRYSTAL DATA

#----------------------------------------------------------------------

data_VESTA_phase_1


_pd_phase_name                         MOF
_cell_length_a                         12.75600
_cell_length_b                         24.58000
_cell_length_c                         15.54500
_cell_angle_alpha                      89.99400
_cell_angle_beta                       102.13500
_cell_angle_gamma                      89.97600
_symmetry_space_group_name_H-M         "P 1"
_symmetry_Int_Tables_number            1

loop_
_symmetry_equiv_pos_as_xyz
   "x, y, z"

loop_
   _atom_site_label
   _atom_site_occupancy
   _atom_site_fract_x
   _atom_site_fract_y
   _atom_site_fract_z
   _atom_site_adp_type
   _atom_site_B_iso_or_equiv
   _atom_site_type_symbol
    H   1.0     0.268457     0.350975     0.787363  Biso 1.000000     H
    H   1.0     0.268474     0.851038     0.787220  Biso 1.000000     H
    H   1.0     0.768803     0.350768     0.787822  Biso 1.000000     H
    H   1.0     0.768731     0.850827     0.787782  Biso 1.000000     H
    H   1.0     0.135520     0.394621     0.761069  Biso 1.000000     H
    H   1.0     0.135546     0.894662     0.761262  Biso 1.000000     H
    H   1.0     0.635874     0.394187     0.761868  Biso 1.000000     H
    H   1.0     0.635801     0.894496     0.761721  Biso 1.000000     H
    H   1.0     0.344284     0.302729     0.673940  Biso 1.000000     H
    H   1.0     0.344358     0.802944     0.673668  Biso 1.000000     H
    H   1.0     0.844488     0.302510     0.674318  Biso 1.000000     H
    H   1.0     0.844444     0.802650     0.674214  Biso 1.000000     H
    H   1.0     0.481420     0.100790     0.712570  Biso 1.000000     H
    H   1.0     0.481403     0.601062     0.712504  Biso 1.000000     H
    H   1.0     0.981474     0.100537     0.712607  Biso 1.000000     H
    H   1.0     0.981508     0.600945     0.712749  Biso 1.000000     H
    H   1.0     0.114201     0.144501     0.738256  Biso 1.000000     H
    H   1.0     0.114186     0.644632     0.738341  Biso 1.000000     H
    H   1.0     0.614283     0.144361     0.738239  Biso 1.000000     H
    H   1.0     0.614306     0.644633     0.738475  Biso 1.000000     H
    H   1.0     0.405545     0.052694     0.826083  Biso 1.000000     H
    H   1.0     0.405662     0.552903     0.826047  Biso 1.000000     H
    H   1.0     0.905576     0.052544     0.826205  Biso 1.000000     H
    H   1.0     0.905673     0.552841     0.826265  Biso 1.000000     H
    H   1.0     0.231252     0.149160     0.212197  Biso 1.000000     H
    H   1.0     0.231181     0.649219     0.212157  Biso 1.000000     H
    H   1.0     0.731508     0.148949     0.212756  Biso 1.000000     H
    H   1.0     0.731525     0.649011     0.212614  Biso 1.000000     H
    H   1.0     0.364181     0.105491     0.238255  Biso 1.000000     H
    H   1.0     0.364108     0.605798     0.238109  Biso 1.000000     H
    H   1.0     0.864436     0.105325     0.238715  Biso 1.000000     H
    H   1.0     0.864463     0.605367     0.238909  Biso 1.000000     H
    H   1.0     0.155538     0.197337     0.325765  Biso 1.000000     H
    H   1.0     0.155495     0.697477     0.325660  Biso 1.000000     H
    H   1.0     0.655623     0.197043     0.326307  Biso 1.000000     H
    H   1.0     0.655699     0.697256     0.326039  Biso 1.000000     H
    H   1.0     0.018475     0.399042     0.287228  Biso 1.000000     H
    H   1.0     0.018511     0.899452     0.287371  Biso 1.000000     H
    H   1.0     0.518578     0.398925     0.287472  Biso 1.000000     H
    H   1.0     0.518561     0.899196     0.287404  Biso 1.000000     H
    H   1.0     0.385676     0.355354     0.261501  Biso 1.000000     H
    H   1.0     0.385699     0.855625     0.261735  Biso 1.000000     H
    H   1.0     0.885796     0.355355     0.261637  Biso 1.000000     H
    H   1.0     0.885782     0.855487     0.261722  Biso 1.000000     H
    H   1.0     0.094310     0.447147     0.173712  Biso 1.000000     H
    H   1.0     0.094409     0.947445     0.173771  Biso 1.000000     H
    H   1.0     0.594320     0.447083     0.173928  Biso 1.000000     H
    H   1.0     0.594436     0.947292     0.173892  Biso 1.000000     H
    C   1.0    -0.003601     0.344671     0.708197  Biso 1.000000     C
    C   1.0    -0.003613     0.844771     0.708236  Biso 1.000000     C
    C   1.0     0.496488     0.344536     0.708441  Biso 1.000000     C
    C   1.0     0.496478     0.844815     0.708237  Biso 1.000000     C
    C   1.0     0.410514     0.399691     0.831247  Biso 1.000000     C
    C   1.0     0.410464     0.899795     0.831165  Biso 1.000000     C
    C   1.0     0.910563     0.399794     0.831138  Biso 1.000000     C
    C   1.0     0.910529     0.899805     0.831228  Biso 1.000000     C
    C   1.0     0.348877     0.360310     0.779120  Biso 1.000000     C
    C   1.0     0.348864     0.860435     0.778967  Biso 1.000000     C
    C   1.0     0.849045     0.360254     0.779285  Biso 1.000000     C
    C   1.0     0.849003     0.860301     0.779304  Biso 1.000000     C
    C   1.0     0.053696     0.383949     0.764385  Biso 1.000000     C
    C   1.0     0.053703     0.883995     0.764518  Biso 1.000000     C
    C   1.0     0.553910     0.383638     0.764913  Biso 1.000000     C
    C   1.0     0.553854     0.883903     0.764760  Biso 1.000000     C
    C   1.0     0.391723     0.332930     0.716285  Biso 1.000000     C
    C   1.0     0.391734     0.833143     0.716062  Biso 1.000000     C
    C   1.0     0.891808     0.332878     0.716385  Biso 1.000000     C
    C   1.0     0.891779     0.832974     0.716365  Biso 1.000000     C
    C   1.0     0.045645     0.313166     0.644018  Biso 1.000000     C
    C   1.0     0.045639     0.813339     0.643995  Biso 1.000000     C
    C   1.0     0.545499     0.313063     0.644082  Biso 1.000000     C
    C   1.0     0.545588     0.813361     0.643938  Biso 1.000000     C
    C   1.0     0.364249     0.433253     0.895842  Biso 1.000000     C
    C   1.0     0.364200     0.933271     0.895848  Biso 1.000000     C
    C   1.0     0.864476     0.433342     0.895865  Biso 1.000000     C
    C   1.0     0.864414     0.933345     0.895928  Biso 1.000000     C
    C   1.0     0.253499     0.094720     0.791683  Biso 1.000000     C
    C   1.0     0.253538     0.594862     0.791694  Biso 1.000000     C
    C   1.0     0.753544     0.094575     0.791720  Biso 1.000000     C
    C   1.0     0.753585     0.594831     0.791859  Biso 1.000000     C
    C   1.0     0.339505     0.149710     0.668754  Biso 1.000000     C
    C   1.0     0.339402     0.649913     0.668738  Biso 1.000000     C
    C   1.0     0.839549     0.149439     0.668669  Biso 1.000000     C
    C   1.0     0.839552     0.649822     0.668879  Biso 1.000000     C
    C   1.0     0.401063     0.110261     0.720868  Biso 1.000000     C
    C   1.0     0.401041     0.610487     0.720840  Biso 1.000000     C
    C   1.0     0.901110     0.110028     0.720872  Biso 1.000000     C
    C   1.0     0.901148     0.610409     0.721046  Biso 1.000000     C
    C   1.0     0.196145     0.133871     0.735210  Biso 1.000000     C
    C   1.0     0.196117     0.634011     0.735248  Biso 1.000000     C
    C   1.0     0.696198     0.133688     0.735168  Biso 1.000000     C
    C   1.0     0.696230     0.633987     0.735386  Biso 1.000000     C
    C   1.0     0.358192     0.082960     0.783760  Biso 1.000000     C
    C   1.0     0.358244     0.583154     0.783740  Biso 1.000000     C
    C   1.0     0.858221     0.082776     0.783809  Biso 1.000000     C
    C   1.0     0.858289     0.583098     0.783943  Biso 1.000000     C
    C   1.0     0.204338     0.063310     0.855988  Biso 1.000000     C
    C   1.0     0.204478     0.563385     0.856002  Biso 1.000000     C
    C   1.0     0.704288     0.063233     0.856026  Biso 1.000000     C
    C   1.0     0.704356     0.563351     0.856061  Biso 1.000000     C
    C   1.0     0.385737     0.183228     0.604102  Biso 1.000000     C
    C   1.0     0.385589     0.683437     0.604070  Biso 1.000000     C
    C   1.0     0.885742     0.182963     0.604001  Biso 1.000000     C
    C   1.0     0.885682     0.683294     0.604103  Biso 1.000000     C
    C   1.0     0.503504     0.155172     0.291739  Biso 1.000000     C
    C   1.0     0.503495     0.655449     0.291537  Biso 1.000000     C
    C   1.0     0.000000     0.155215     0.291743  Biso 1.000000     C
    C   1.0     0.000000     0.655316     0.291781  Biso 1.000000     C
    C   1.0     0.089454     0.100182     0.168750  Biso 1.000000     C
    C   1.0     0.089420     0.600193     0.168840  Biso 1.000000     C
    C   1.0     0.589518     0.100191     0.168811  Biso 1.000000     C
    C   1.0     0.589468     0.600295     0.168730  Biso 1.000000     C
    C   1.0     0.150980     0.139686     0.220674  Biso 1.000000     C
    C   1.0     0.150938     0.639732     0.220693  Biso 1.000000     C
    C   1.0     0.651118     0.139552     0.221009  Biso 1.000000     C
    C   1.0     0.651105     0.639675     0.220857  Biso 1.000000     C
    C   1.0     0.446128     0.116084     0.235216  Biso 1.000000     C
    C   1.0     0.446073     0.616347     0.235064  Biso 1.000000     C
    C   1.0     0.946280     0.115992     0.235460  Biso 1.000000     C
    C   1.0     0.946287     0.616038     0.235593  Biso 1.000000     C
    C   1.0     0.108203     0.167013     0.283613  Biso 1.000000     C
    C   1.0     0.108174     0.667109     0.283593  Biso 1.000000     C
    C   1.0     0.608248     0.166844     0.283913  Biso 1.000000     C
    C   1.0     0.608259     0.667055     0.283693  Biso 1.000000     C
    C   1.0     0.454394     0.186626     0.356037  Biso 1.000000     C
    C   1.0     0.454483     0.686921     0.355896  Biso 1.000000     C
    C   1.0     0.954343     0.186648     0.355983  Biso 1.000000     C
    C   1.0     0.954337     0.686823     0.355958  Biso 1.000000     C
    C   1.0     0.135569     0.066643     0.104049  Biso 1.000000     C
    C   1.0     0.135507     0.566645     0.104112  Biso 1.000000     C
    C   1.0     0.635782     0.066716     0.104129  Biso 1.000000     C
    C   1.0     0.635733     0.566734     0.104134  Biso 1.000000     C
    C   1.0     0.246397     0.405156     0.208117  Biso 1.000000     C
    C   1.0     0.246440     0.905411     0.208256  Biso 1.000000     C
    C   1.0     0.746443     0.405125     0.208283  Biso 1.000000     C
    C   1.0     0.746483     0.905267     0.208293  Biso 1.000000     C
    C   1.0     0.160430     0.350165     0.331097  Biso 1.000000     C
    C   1.0     0.160435     0.850550     0.331308  Biso 1.000000     C
    C   1.0     0.660579     0.350074     0.331238  Biso 1.000000     C
    C   1.0     0.660476     0.850277     0.331221  Biso 1.000000     C
    C   1.0     0.098835     0.389578     0.278931  Biso 1.000000     C
    C   1.0     0.098874     0.889960     0.279105  Biso 1.000000     C
    C   1.0     0.598940     0.389500     0.279136  Biso 1.000000     C
    C   1.0     0.598918     0.889725     0.279107  Biso 1.000000     C
    C   1.0     0.303752     0.366000     0.264590  Biso 1.000000     C
    C   1.0     0.303785     0.866298     0.264807  Biso 1.000000     C
    C   1.0     0.803864     0.365976     0.264730  Biso 1.000000     C
    C   1.0     0.803838     0.866117     0.264767  Biso 1.000000     C
    C   1.0     0.141693     0.416889     0.216034  Biso 1.000000     C
    C   1.0     0.141763     0.917211     0.216167  Biso 1.000000     C
    C   1.0     0.641738     0.416832     0.216236  Biso 1.000000     C
    C   1.0     0.641789     0.917026     0.216215  Biso 1.000000     C
    C   1.0     0.295627     0.436636     0.143916  Biso 1.000000     C
    C   1.0     0.295696     0.936754     0.143950  Biso 1.000000     C
    C   1.0     0.795503     0.436602     0.143975  Biso 1.000000     C
    C   1.0     0.795643     0.936677     0.143988  Biso 1.000000     C
    C   1.0     0.114301     0.316692     0.395873  Biso 1.000000     C
    C   1.0     0.114242     0.817028     0.395978  Biso 1.000000     C
    C   1.0     0.614391     0.316551     0.395906  Biso 1.000000     C
    C   1.0     0.614243     0.816758     0.395874  Biso 1.000000     C
    N   1.0     0.012538     0.411156     0.824658  Biso 1.000000     N
    N   1.0     0.012525     0.911162     0.824812  Biso 1.000000     N
    N   1.0     0.512644     0.410888     0.825092  Biso 1.000000     N
    N   1.0     0.512564     0.911061     0.825010  Biso 1.000000     N
    N   1.0     0.237436     0.161035     0.674980  Biso 1.000000     N
    N   1.0     0.237333     0.661202     0.674997  Biso 1.000000     N
    N   1.0     0.737490     0.160795     0.674892  Biso 1.000000     N
    N   1.0     0.737485     0.661144     0.675130  Biso 1.000000     N
    N   1.0     0.487418     0.088925     0.174966  Biso 1.000000     N
    N   1.0     0.487339     0.589097     0.174885  Biso 1.000000     N
    N   1.0     0.987458     0.088825     0.175166  Biso 1.000000     N
    N   1.0     0.987445     0.588831     0.175320  Biso 1.000000     N
    N   1.0     0.262498     0.338842     0.324846  Biso 1.000000     N
    N   1.0     0.262493     0.839192     0.325084  Biso 1.000000     N
    N   1.0     0.762648     0.338785     0.324980  Biso 1.000000     N
    N   1.0     0.762546     0.838952     0.324997  Biso 1.000000     N
    O   1.0     0.431681     0.461135     0.952120  Biso 1.000000     O
    O   1.0     0.431637     0.961129     0.952157  Biso 1.000000     O
    O   1.0     0.932049     0.461189     0.952100  Biso 1.000000     O
    O   1.0     0.931971     0.961202     0.952156  Biso 1.000000     O
    O   1.0     0.264141     0.432474     0.888479  Biso 1.000000     O
    O   1.0     0.264097     0.932465     0.888497  Biso 1.000000     O
    O   1.0     0.764394     0.432595     0.888665  Biso 1.000000     O
    O   1.0     0.764328     0.932594     0.888695  Biso 1.000000     O
    O   1.0     0.142649     0.298234     0.666751  Biso 1.000000     O
    O   1.0     0.142603     0.798340     0.666761  Biso 1.000000     O
    O   1.0     0.642279     0.297729     0.666821  Biso 1.000000     O
    O   1.0     0.642482     0.798213     0.666639  Biso 1.000000     O
    O   1.0    -0.014912     0.300194     0.570491  Biso 1.000000     O
    O   1.0    -0.014859     0.800491     0.570385  Biso 1.000000     O
    O   1.0     0.484809     0.300560     0.570393  Biso 1.000000     O
    O   1.0     0.484869     0.800645     0.570358  Biso 1.000000     O
    O   1.0     0.318306     0.211169     0.547859  Biso 1.000000     O
    O   1.0     0.318148     0.711389     0.547846  Biso 1.000000     O
    O   1.0     0.818204     0.210918     0.547838  Biso 1.000000     O
    O   1.0     0.818094     0.711139     0.547819  Biso 1.000000     O
    O   1.0     0.485825     0.182392     0.611398  Biso 1.000000     O
    O   1.0     0.485669     0.682582     0.611339  Biso 1.000000     O
    O   1.0     0.985838     0.182152     0.611264  Biso 1.000000     O
    O   1.0     0.985778     0.682513     0.611333  Biso 1.000000     O
    O   1.0     0.107373     0.048309     0.833336  Biso 1.000000     O
    O   1.0     0.107528     0.548347     0.833369  Biso 1.000000     O
    O   1.0     0.607440     0.048091     0.833184  Biso 1.000000     O
    O   1.0     0.607530     0.548186     0.833167  Biso 1.000000     O
    O   1.0     0.265059     0.050482     0.929534  Biso 1.000000     O
    O   1.0     0.265276     0.550542     0.929509  Biso 1.000000     O
    O   1.0     0.764747     0.050592     0.929761  Biso 1.000000     O
    O   1.0     0.764824     0.550621     0.929753  Biso 1.000000     O
    O   1.0     0.068011     0.038786     0.047822  Biso 1.000000     O
    O   1.0     0.067933     0.538799     0.047878  Biso 1.000000     O
    O   1.0     0.568346     0.038857     0.047819  Biso 1.000000     O
    O   1.0     0.568302     0.538852     0.047856  Biso 1.000000     O
    O   1.0     0.235655     0.067393     0.111283  Biso 1.000000     O
    O   1.0     0.235589     0.567392     0.111312  Biso 1.000000     O
    O   1.0     0.735886     0.067522     0.111479  Biso 1.000000     O
    O   1.0     0.735842     0.567512     0.111498  Biso 1.000000     O
    O   1.0     0.357499     0.201773     0.333338  Biso 1.000000     O
    O   1.0     0.357701     0.702252     0.333159  Biso 1.000000     O
    O   1.0     0.857379     0.201648     0.333215  Biso 1.000000     O
    O   1.0     0.857332     0.701753     0.333225  Biso 1.000000     O
    O   1.0     0.515113     0.199342     0.429617  Biso 1.000000     O
    O   1.0     0.515174     0.699427     0.429583  Biso 1.000000     O
    O   1.0     0.000000     0.199495     0.429594  Biso 1.000000     O
    O   1.0     0.000000     0.699799     0.429483  Biso 1.000000     O
    O   1.0     0.181889     0.288847     0.452157  Biso 1.000000     O
    O   1.0     0.181778     0.789070     0.452138  Biso 1.000000     O
    O   1.0     0.681831     0.288598     0.452131  Biso 1.000000     O
    O   1.0     0.681674     0.788818     0.452117  Biso 1.000000     O
    O   1.0     0.014205     0.317473     0.388642  Biso 1.000000     O
    O   1.0     0.014145     0.817843     0.388717  Biso 1.000000     O
    O   1.0     0.514311     0.317406     0.388636  Biso 1.000000     O
    O   1.0     0.514156     0.817595     0.388577  Biso 1.000000     O
    O   1.0     0.392453     0.451801     0.166810  Biso 1.000000     O
    O   1.0     0.392545     0.951895     0.166792  Biso 1.000000     O
    O   1.0     0.892453     0.451640     0.166607  Biso 1.000000     O
    O   1.0     0.892608     0.951678     0.166640  Biso 1.000000     O
    O   1.0     0.235160     0.449366     0.070224  Biso 1.000000     O
    O   1.0     0.235237     0.949395     0.070215  Biso 1.000000     O
    O   1.0     0.734705     0.449444     0.070468  Biso 1.000000     O
    O   1.0     0.734922     0.949505     0.070442  Biso 1.000000     O
   Ca   1.0     0.119250     0.476273     0.941203  Biso 1.000000    Ca
   Ca   1.0     0.119222     0.976250     0.941256  Biso 1.000000    Ca
   Ca   1.0     0.619109     0.476233     0.941251  Biso 1.000000    Ca
   Ca   1.0     0.619098     0.976219     0.941320  Biso 1.000000    Ca
   Ca   1.0     0.130849     0.226196     0.558659  Biso 1.000000    Ca
   Ca   1.0     0.130799     0.726410     0.558632  Biso 1.000000    Ca
   Ca   1.0     0.630902     0.226005     0.558668  Biso 1.000000    Ca
   Ca   1.0     0.630763     0.726250     0.558661  Biso 1.000000    Ca
   Ca   1.0     0.380884     0.023768     0.058656  Biso 1.000000    Ca
   Ca   1.0     0.380874     0.523753     0.058725  Biso 1.000000    Ca
   Ca   1.0     0.880761     0.023738     0.058721  Biso 1.000000    Ca
   Ca   1.0     0.880732     0.523714     0.058774  Biso 1.000000    Ca
   Ca   1.0     0.369219     0.273737     0.441316  Biso 1.000000    Ca
   Ca   1.0     0.369079     0.773981     0.441307  Biso 1.000000    Ca
   Ca   1.0     0.869182     0.273578     0.441345  Biso 1.000000    Ca
   Ca   1.0     0.869134     0.773792     0.441318  Biso 1.000000    Ca
