#======================================================================

# CRYSTAL DATA

#----------------------------------------------------------------------

data_VESTA_phase_1


_pd_phase_name                         MOF
_cell_length_a                         13.85000
_cell_length_b                         15.79200
_cell_length_c                         13.48800
_cell_angle_alpha                      94.99300
_cell_angle_beta                       112.13300
_cell_angle_gamma                      117.57500
_symmetry_space_group_name_H-M         "P 1"
_symmetry_Int_Tables_number            1

loop_
_symmetry_equiv_pos_as_xyz
   "x, y, z"

loop_
   _atom_site_label
   _atom_site_occupancy
   _atom_site_fract_x
   _atom_site_fract_y
   _atom_site_fract_z
   _atom_site_adp_type
   _atom_site_B_iso_or_equiv
   _atom_site_type_symbol
    H   1.0     0.936473     0.800836     0.604843  Biso 1.000000     H
    H   1.0     0.508335     0.594227     0.362363  Biso 1.000000     H
    H   1.0     0.927060     0.627309     0.818847  Biso 1.000000     H
    H   1.0     0.273307     0.896382     0.902708  Biso 1.000000     H
    H   1.0     0.690055     0.872456     0.296697  Biso 1.000000     H
    H   1.0     0.307076     0.694592     0.129674  Biso 1.000000     H
    H   1.0     0.575128     0.816455     0.734192  Biso 1.000000     H
    H   1.0     0.317909     0.709719     0.867575  Biso 1.000000     H
    H   1.0     0.344660     0.501530     0.688521  Biso 1.000000     H
    H   1.0     0.063385     0.199012     0.394945  Biso 1.000000     H
    H   1.0     0.491448     0.405774     0.637670  Biso 1.000000     H
    H   1.0     0.072810     0.372584     0.180991  Biso 1.000000     H
    H   1.0     0.726557     0.103504     0.097098  Biso 1.000000     H
    H   1.0     0.309753     0.127506     0.703280  Biso 1.000000     H
    H   1.0     0.692728     0.305437     0.870379  Biso 1.000000     H
    H   1.0     0.424732     0.183476     0.265695  Biso 1.000000     H
    H   1.0     0.681946     0.290222     0.132308  Biso 1.000000     H
    H   1.0     0.655184     0.498403     0.311362  Biso 1.000000     H
    C   1.0     0.113811     0.860533     0.750711  Biso 1.000000     C
    C   1.0     0.108354     0.759762     0.874859  Biso 1.000000     C
    C   1.0     0.987282     0.791409     0.682557  Biso 1.000000     C
    C   1.0     0.392774     0.632824     0.243517  Biso 1.000000     C
    C   1.0     0.505883     0.649118     0.319695  Biso 1.000000     C
    C   1.0     0.615197     0.735915     0.340147  Biso 1.000000     C
    C   1.0     0.982067     0.694330     0.801590  Biso 1.000000     C
    C   1.0     0.174703     0.844100     0.848420  Biso 1.000000     C
    C   1.0     0.738312     0.757614     0.425759  Biso 1.000000     C
    C   1.0     0.528942     0.631089     0.646521  Biso 1.000000     C
    C   1.0     0.450223     0.776336     0.805953  Biso 1.000000     C
    C   1.0     0.467762     0.655893     0.704399  Biso 1.000000     C
    C   1.0     0.606930     0.803289     0.282001  Biso 1.000000     C
    C   1.0     0.393422     0.704042     0.188807  Biso 1.000000     C
    C   1.0     0.183710     0.949762     0.719247  Biso 1.000000     C
    C   1.0     0.483260     0.881527     0.849346  Biso 1.000000     C
    C   1.0     0.273386     0.542950     0.224769  Biso 1.000000     C
    C   1.0     0.172130     0.739779     0.979063  Biso 1.000000     C
    C   1.0     0.504718     0.755745     0.746787  Biso 1.000000     C
    C   1.0     0.361313     0.695368     0.820997  Biso 1.000000     C
    C   1.0     0.375531     0.580254     0.721499  Biso 1.000000     C
    C   1.0     0.886053     0.139332     0.249081  Biso 1.000000     C
    C   1.0     0.891516     0.240122     0.124953  Biso 1.000000     C
    C   1.0     0.012584     0.208445     0.317232  Biso 1.000000     C
    C   1.0     0.607018     0.367202     0.756545  Biso 1.000000     C
    C   1.0     0.493905     0.350883     0.680337  Biso 1.000000     C
    C   1.0     0.384596     0.264067     0.659859  Biso 1.000000     C
    C   1.0     0.017805     0.305545     0.198223  Biso 1.000000     C
    C   1.0     0.825163     0.155777     0.151380  Biso 1.000000     C
    C   1.0     0.261483     0.242340     0.574201  Biso 1.000000     C
    C   1.0     0.470913     0.368840     0.353372  Biso 1.000000     C
    C   1.0     0.549642     0.223603     0.193935  Biso 1.000000     C
    C   1.0     0.532091     0.344036     0.295492  Biso 1.000000     C
    C   1.0     0.392872     0.196691     0.717999  Biso 1.000000     C
    C   1.0     0.606377     0.295978     0.811240  Biso 1.000000     C
    C   1.0     0.816148     0.050118     0.280560  Biso 1.000000     C
    C   1.0     0.516610     0.118414     0.150545  Biso 1.000000     C
    C   1.0     0.726401     0.457098     0.775319  Biso 1.000000     C
    C   1.0     0.827738     0.260136     0.020775  Biso 1.000000     C
    C   1.0     0.495131     0.244185     0.253089  Biso 1.000000     C
    C   1.0     0.638541     0.304574     0.178883  Biso 1.000000     C
    C   1.0     0.624311     0.419679     0.278382  Biso 1.000000     C
    N   1.0     0.921543     0.709317     0.706817  Biso 1.000000     N
    N   1.0     0.498283     0.788366     0.207154  Biso 1.000000     N
    N   1.0     0.322862     0.598651     0.779226  Biso 1.000000     N
    N   1.0     0.078326     0.290543     0.292985  Biso 1.000000     N
    N   1.0     0.501523     0.211627     0.792858  Biso 1.000000     N
    N   1.0     0.676980     0.401287     0.220652  Biso 1.000000     N
    O   1.0     0.284139     0.806940     0.045926  Biso 1.000000     O
    O   1.0     0.737674     0.691297     0.472457  Biso 1.000000     O
    O   1.0     0.469882     0.541907     0.576691  Biso 1.000000     O
    O   1.0     0.300440     0.999771     0.775206  Biso 1.000000     O
    O   1.0     0.122026     0.970066     0.638716  Biso 1.000000     O
    O   1.0     0.172673     0.524073     0.144482  Biso 1.000000     O
    O   1.0     0.280571     0.491828     0.291554  Biso 1.000000     O
    O   1.0     0.835394     0.841117     0.447173  Biso 1.000000     O
    O   1.0     0.110829     0.656488     0.993792  Biso 1.000000     O
    O   1.0     0.517169     0.942987     0.797349  Biso 1.000000     O
    O   1.0     0.638432     0.697264     0.670267  Biso 1.000000     O
    O   1.0     0.473094     0.905331    -0.062831  Biso 1.000000     O
    O   1.0     0.715707     0.193008     0.953939  Biso 1.000000     O
    O   1.0     0.262129     0.308627     0.527445  Biso 1.000000     O
    O   1.0     0.529980     0.458017     0.423216  Biso 1.000000     O
    O   1.0     0.699417     0.000136     0.224631  Biso 1.000000     O
    O   1.0     0.877831     0.029807     0.361083  Biso 1.000000     O
    O   1.0     0.827109     0.476014     0.855653  Biso 1.000000     O
    O   1.0     0.719220     0.508191     0.708500  Biso 1.000000     O
    O   1.0     0.164399     0.158843     0.552796  Biso 1.000000     O
    O   1.0     0.889056     0.343422     0.006045  Biso 1.000000     O
    O   1.0     0.482714     0.056958     0.202550  Biso 1.000000     O
    O   1.0     0.361411     0.302673     0.329607  Biso 1.000000     O
    O   1.0     0.526756     0.094606     0.000000  Biso 1.000000     O
   Ca   1.0     0.686875     0.595471     0.585247  Biso 1.000000    Ca
   Ca   1.0     0.490617     0.924031     0.116161  Biso 1.000000    Ca
   Ca   1.0     0.312969     0.404449     0.414664  Biso 1.000000    Ca
   Ca   1.0     0.509236     0.075906     0.883727  Biso 1.000000    Ca
   Ca   1.0    -0.000089    -0.000025     0.499947  Biso 1.000000    Ca
   Ca   1.0    -0.000093     0.500002     0.000014  Biso 1.000000    Ca
