#======================================================================

# CRYSTAL DATA

#----------------------------------------------------------------------

data_VESTA_phase_1


_pd_phase_name                         MOF
_cell_length_a                         18.13400
_cell_length_b                         15.93700
_cell_length_c                         21.36400
_cell_angle_alpha                      90.00900
_cell_angle_beta                       114.75800
_cell_angle_gamma                      89.98000
_symmetry_space_group_name_H-M         "P 1"
_symmetry_Int_Tables_number            1

loop_
_symmetry_equiv_pos_as_xyz
   "x, y, z"

loop_
   _atom_site_label
   _atom_site_occupancy
   _atom_site_fract_x
   _atom_site_fract_y
   _atom_site_fract_z
   _atom_site_adp_type
   _atom_site_B_iso_or_equiv
   _atom_site_type_symbol
    C   1.0     0.136729     0.362659     0.098938  Biso 1.000000     C
    C   1.0    -0.035971     0.363029     0.600691  Biso 1.000000     C
    C   1.0    -0.035770     0.862945     0.100622  Biso 1.000000     C
    C   1.0     0.136751     0.862767     0.599066  Biso 1.000000     C
    C   1.0     0.636784     0.362712     0.098974  Biso 1.000000     C
    C   1.0     0.464013     0.362925     0.600648  Biso 1.000000     C
    C   1.0     0.464258     0.863011     0.100630  Biso 1.000000     C
    C   1.0     0.636732     0.862669     0.599023  Biso 1.000000     C
    C   1.0     0.529570     0.410139     0.432439  Biso 1.000000     C
    C   1.0     0.402165     0.409880     0.933693  Biso 1.000000     C
    C   1.0     0.402166     0.909821     0.433702  Biso 1.000000     C
    C   1.0     0.529534     0.910289     0.932233  Biso 1.000000     C
    C   1.0     0.000000     0.410223     0.432458  Biso 1.000000     C
    C   1.0     0.902094     0.409835     0.933680  Biso 1.000000     C
    C   1.0     0.902211     0.909900     0.433727  Biso 1.000000     C
    C   1.0     0.000000     0.910233     0.932239  Biso 1.000000     C
    C   1.0     0.136773     0.137281     0.098968  Biso 1.000000     C
    C   1.0    -0.035952     0.137246     0.600656  Biso 1.000000     C
    C   1.0    -0.035775     0.637173     0.100604  Biso 1.000000     C
    C   1.0     0.136776     0.637324     0.599052  Biso 1.000000     C
    C   1.0     0.636809     0.137329     0.098957  Biso 1.000000     C
    C   1.0     0.464023     0.137142     0.600637  Biso 1.000000     C
    C   1.0     0.464273     0.637239     0.100607  Biso 1.000000     C
    C   1.0     0.636778     0.637226     0.599049  Biso 1.000000     C
    C   1.0     0.529562     0.089760     0.432411  Biso 1.000000     C
    C   1.0     0.402168     0.090305     0.933700  Biso 1.000000     C
    C   1.0     0.402224     0.590233     0.433714  Biso 1.000000     C
    C   1.0     0.529561     0.589778     0.932233  Biso 1.000000     C
    C   1.0     0.000000     0.089844     0.432441  Biso 1.000000     C
    C   1.0     0.902164     0.090254     0.933694  Biso 1.000000     C
    C   1.0     0.902227     0.590313     0.433742  Biso 1.000000     C
    C   1.0     0.000000     0.589718     0.932208  Biso 1.000000     C
    C   1.0     0.325960     0.249969     0.218755  Biso 1.000000     C
    C   1.0     0.103199     0.250116     0.743782  Biso 1.000000     C
    C   1.0     0.103361     0.750029     0.243768  Biso 1.000000     C
    C   1.0     0.326084     0.750022     0.718524  Biso 1.000000     C
    C   1.0     0.825994     0.250008     0.218779  Biso 1.000000     C
    C   1.0     0.603182     0.250023     0.743747  Biso 1.000000     C
    C   1.0     0.603384     0.750106     0.243783  Biso 1.000000     C
    C   1.0     0.826079     0.749963     0.718502  Biso 1.000000     C
    C   1.0     0.139459     0.250010     0.242186  Biso 1.000000     C
    C   1.0    -0.106495     0.250100     0.720369  Biso 1.000000     C
    C   1.0    -0.106353     0.750081     0.220283  Biso 1.000000     C
    C   1.0     0.139773     0.750016     0.742346  Biso 1.000000     C
    C   1.0     0.639469     0.249984     0.242181  Biso 1.000000     C
    C   1.0     0.393497     0.250059     0.720349  Biso 1.000000     C
    C   1.0     0.393658     0.750093     0.220270  Biso 1.000000     C
    C   1.0     0.639776     0.749983     0.742328  Biso 1.000000     C
    N   1.0     0.098391     0.418156     0.064991  Biso 1.000000     N
    N   1.0    -0.031906     0.418835     0.566695  Biso 1.000000     N
    N   1.0    -0.031733     0.918738     0.066604  Biso 1.000000     N
    N   1.0     0.098412     0.918303     0.565181  Biso 1.000000     N
    N   1.0     0.598460     0.418220     0.065033  Biso 1.000000     N
    N   1.0     0.468078     0.418732     0.566653  Biso 1.000000     N
    N   1.0     0.468298     0.918802     0.066611  Biso 1.000000     N
    N   1.0     0.598389     0.918205     0.565140  Biso 1.000000     N
    N   1.0     0.537520     0.359247     0.396349  Biso 1.000000     N
    N   1.0     0.357789     0.359282     0.897978  Biso 1.000000     N
    N   1.0     0.357855     0.859222     0.397924  Biso 1.000000     N
    N   1.0     0.537434     0.859391     0.896123  Biso 1.000000     N
    N   1.0     0.000000     0.359335     0.396366  Biso 1.000000     N
    N   1.0     0.857716     0.359234     0.897971  Biso 1.000000     N
    N   1.0     0.857901     0.859303     0.397945  Biso 1.000000     N
    N   1.0     0.000000     0.859329     0.896132  Biso 1.000000     N
    N   1.0     0.098448     0.081788     0.065030  Biso 1.000000     N
    N   1.0    -0.031903     0.081425     0.566652  Biso 1.000000     N
    N   1.0    -0.031749     0.581365     0.066578  Biso 1.000000     N
    N   1.0     0.098438     0.581799     0.565172  Biso 1.000000     N
    N   1.0     0.598481     0.081839     0.065017  Biso 1.000000     N
    N   1.0     0.468079     0.081323     0.566634  Biso 1.000000     N
    N   1.0     0.468301     0.581428     0.066586  Biso 1.000000     N
    N   1.0     0.598441     0.581701     0.565169  Biso 1.000000     N
    N   1.0     0.537527     0.140622     0.396321  Biso 1.000000     N
    N   1.0     0.357795     0.140927     0.897987  Biso 1.000000     N
    N   1.0     0.357922     0.640852     0.397926  Biso 1.000000     N
    N   1.0     0.537466     0.640656     0.896127  Biso 1.000000     N
    N   1.0     0.000000     0.140710     0.396357  Biso 1.000000     N
    N   1.0     0.857792     0.140873     0.897976  Biso 1.000000     N
    N   1.0     0.857924     0.640934     0.397959  Biso 1.000000     N
    N   1.0     0.000000     0.640591     0.896106  Biso 1.000000     N
    N   1.0     0.396030     0.249964     0.252590  Biso 1.000000     N
    N   1.0     0.172648     0.250123     0.779974  Biso 1.000000     N
    N   1.0     0.172794     0.750022     0.280010  Biso 1.000000     N
    N   1.0     0.396182     0.750020     0.752237  Biso 1.000000     N
    N   1.0     0.896062     0.250016     0.252617  Biso 1.000000     N
    N   1.0     0.672631     0.250029     0.779938  Biso 1.000000     N
    N   1.0     0.672816     0.750109     0.280029  Biso 1.000000     N
    N   1.0     0.896176     0.749974     0.752221  Biso 1.000000     N
    N   1.0     0.605655     0.249955     0.278312  Biso 1.000000     N
    N   1.0     0.356681     0.250072     0.754075  Biso 1.000000     N
    N   1.0     0.356762     0.750059     0.253931  Biso 1.000000     N
    N   1.0     0.606012     0.749998     0.778498  Biso 1.000000     N
    N   1.0     0.000000     0.250020     0.278330  Biso 1.000000     N
    N   1.0     0.856695     0.250073     0.754087  Biso 1.000000     N
    N   1.0     0.856779     0.750087     0.253954  Biso 1.000000     N
    N   1.0     0.000000     0.749991     0.778509  Biso 1.000000     N
   Cd   1.0    -0.002452     0.000366    -0.004619  Biso 1.000000    Cd
   Cd   1.0    -0.002482    -0.000246     0.495494  Biso 1.000000    Cd
   Cd   1.0    -0.002499     0.499648    -0.004649  Biso 1.000000    Cd
   Cd   1.0    -0.002476     0.500396     0.495513  Biso 1.000000    Cd
   Cd   1.0     0.497572     0.000418    -0.004622  Biso 1.000000    Cd
   Cd   1.0     0.497496    -0.000333     0.495466  Biso 1.000000    Cd
   Cd   1.0     0.497574     0.499703    -0.004625  Biso 1.000000    Cd
   Cd   1.0     0.497528     0.500310     0.495491  Biso 1.000000    Cd
   Cd   1.0     0.191597     0.249979     0.163385  Biso 1.000000    Cd
   Cd   1.0    -0.026698     0.250128     0.665030  Biso 1.000000    Cd
   Cd   1.0    -0.026510     0.750060     0.164978  Biso 1.000000    Cd
   Cd   1.0     0.191698     0.750036     0.663409  Biso 1.000000    Cd
   Cd   1.0     0.691633     0.250010     0.163397  Biso 1.000000    Cd
   Cd   1.0     0.473282     0.250036     0.664999  Biso 1.000000    Cd
   Cd   1.0     0.473519     0.750122     0.164982  Biso 1.000000    Cd
   Cd   1.0     0.691693     0.749954     0.663385  Biso 1.000000    Cd
   Cd   1.0     0.523709     0.249940     0.328989  Biso 1.000000    Cd
   Cd   1.0     0.304577     0.250107     0.830612  Biso 1.000000    Cd
   Cd   1.0     0.304742     0.750034     0.330533  Biso 1.000000    Cd
   Cd   1.0     0.523745     0.750016     0.828861  Biso 1.000000    Cd
   Cd   1.0     0.000000     0.250024     0.329016  Biso 1.000000    Cd
   Cd   1.0     0.804557     0.250049     0.830601  Biso 1.000000    Cd
   Cd   1.0     0.804764     0.750117     0.330559  Biso 1.000000    Cd
   Cd   1.0     0.000000     0.749965     0.828857  Biso 1.000000    Cd
