#======================================================================

# CRYSTAL DATA

#----------------------------------------------------------------------

data_VESTA_phase_1


_pd_phase_name                         MOF
_cell_length_a                         15.37100
_cell_length_b                         15.17900
_cell_length_c                         15.17000
_cell_angle_alpha                      103.68600
_cell_angle_beta                       103.49700
_cell_angle_gamma                      103.93800
_symmetry_space_group_name_H-M         "P 1"
_symmetry_Int_Tables_number            1

loop_
_symmetry_equiv_pos_as_xyz
   "x, y, z"

loop_
   _atom_site_label
   _atom_site_occupancy
   _atom_site_fract_x
   _atom_site_fract_y
   _atom_site_fract_z
   _atom_site_adp_type
   _atom_site_B_iso_or_equiv
   _atom_site_type_symbol
    H   1.0     0.260639     0.005850     0.438306  Biso 1.000000     H
    H   1.0     0.510323     0.316286    -0.024474  Biso 1.000000     H
    H   1.0     0.050911     0.466963     0.349185  Biso 1.000000     H
    H   1.0     0.943326     0.648956     0.531214  Biso 1.000000     H
    H   1.0     0.735877     0.558145     0.990350  Biso 1.000000     H
    H   1.0     0.486053     0.000000     0.677749  Biso 1.000000     H
    H   1.0     0.660314     0.969352     0.476288  Biso 1.000000     H
    H   1.0     0.533822     0.711585     0.943235  Biso 1.000000     H
    H   1.0     0.000000     0.494449     0.748167  Biso 1.000000     H
    H   1.0    -0.030309     0.250658     0.503902  Biso 1.000000     H
    H   1.0     0.336809     0.519732     0.028530  Biso 1.000000     H
    H   1.0     0.462492     0.048224     0.280977  Biso 1.000000     H
    H   1.0     0.211749     0.007088     0.706614  Biso 1.000000     H
    H   1.0     0.785551     0.290657    -0.011106  Biso 1.000000     H
    H   1.0    -0.002727     0.713441     0.283950  Biso 1.000000     H
    H   1.0     0.708964     0.002303     0.215997  Biso 1.000000     H
    H   1.0     0.289318     0.778786    -0.008097  Biso 1.000000     H
    H   1.0    -0.001090     0.216236     0.781978  Biso 1.000000     H
    C   1.0     0.226702     0.005447     0.568042  Biso 1.000000     C
    C   1.0     0.287359     0.008915     0.512382  Biso 1.000000     C
    C   1.0     0.125075    -0.007713     0.524123  Biso 1.000000     C
    C   1.0     0.643496     0.292568    -0.020008  Biso 1.000000     C
    C   1.0     0.582860     0.348084    -0.021266  Biso 1.000000     C
    C   1.0     0.604519     0.191150    -0.023654  Biso 1.000000     C
    C   1.0     0.027821     0.587889     0.307961  Biso 1.000000     C
    C   1.0     0.027516     0.529314     0.366595  Biso 1.000000     C
    C   1.0     0.056622     0.563640     0.219706  Biso 1.000000     C
    C   1.0     0.966518     0.689740     0.409828  Biso 1.000000     C
    C   1.0     0.966635     0.631363     0.468670  Biso 1.000000     C
    C   1.0     0.938425     0.778223     0.434210  Biso 1.000000     C
    C   1.0     0.770211     0.428929     0.990816  Biso 1.000000     C
    C   1.0     0.709245     0.483816     0.987075  Biso 1.000000     C
    C   1.0     0.872113     0.473864     0.000000  Biso 1.000000     C
    C   1.0     0.353371     0.000000     0.703001  Biso 1.000000     C
    C   1.0     0.413659     0.000000     0.646734  Biso 1.000000     C
    C   1.0     0.392632     0.000000     0.804047  Biso 1.000000     C
    C   1.0     0.693876     0.983566     0.349258  Biso 1.000000     C
    C   1.0     0.638187     0.985994     0.410286  Biso 1.000000     C
    C   1.0     0.783941     0.961120     0.378464  Biso 1.000000     C
    C   1.0     0.414767     0.753946     0.965182  Biso 1.000000     C
    C   1.0     0.469286     0.692617     0.962175  Biso 1.000000     C
    C   1.0     0.448370     0.847593     0.948436  Biso 1.000000     C
    C   1.0     0.000000     0.360153     0.775279  Biso 1.000000     C
    C   1.0     0.000000     0.418614     0.716438  Biso 1.000000     C
    C   1.0     0.000000     0.406913     0.879269  Biso 1.000000     C
    C   1.0    -0.018552     0.223262     0.638140  Biso 1.000000     C
    C   1.0    -0.017807     0.282218     0.579784  Biso 1.000000     C
    C   1.0    -0.037089     0.119362     0.591256  Biso 1.000000     C
    C   1.0     0.303779     0.646257     0.012629  Biso 1.000000     C
    C   1.0     0.358889     0.585011     0.010338  Biso 1.000000     C
    C   1.0     0.214170     0.618517     0.036948  Biso 1.000000     C
    C   1.0     0.582462     0.027426     0.239604  Biso 1.000000     C
    C   1.0     0.527371     0.030555     0.300755  Biso 1.000000     C
    C   1.0     0.548946     0.043075     0.145602  Biso 1.000000     C
    C   1.0     0.381686     0.013880     0.551170  Biso 1.000000     C
    C   1.0     0.259565     0.009659     0.663835  Biso 1.000000     C
    C   1.0     0.443297     0.014013     0.494897  Biso 1.000000     C
    C   1.0     0.614667     0.443913    -0.018438  Biso 1.000000     C
    C   1.0     0.737462     0.332809    -0.013822  Biso 1.000000     C
    C   1.0     0.552803     0.499530    -0.018806  Biso 1.000000     C
    C   1.0    -0.002929     0.550468     0.447667  Biso 1.000000     C
    C   1.0    -0.002804     0.667963     0.329586  Biso 1.000000     C
    C   1.0    -0.002805     0.491148     0.507333  Biso 1.000000     C
    C   1.0     0.554612     0.009887     0.386849  Biso 1.000000     C
    C   1.0     0.666192     0.004475     0.263872  Biso 1.000000     C
    C   1.0     0.496732     0.012197     0.446971  Biso 1.000000     C
    C   1.0     0.441951     0.607385    -0.015276  Biso 1.000000     C
    C   1.0     0.331562     0.730700    -0.010201  Biso 1.000000     C
    C   1.0     0.499457     0.547237    -0.017259  Biso 1.000000     C
    C   1.0    -0.002049     0.380610     0.617969  Biso 1.000000     C
    C   1.0    -0.001315     0.261912     0.736422  Biso 1.000000     C
    C   1.0    -0.002475     0.440109     0.558497  Biso 1.000000     C
    O   1.0     0.100296     0.003232     0.440897  Biso 1.000000     O
    O   1.0     0.069226     0.969097     0.570330  Biso 1.000000     O
    O   1.0     0.527423     0.169560    -0.004462  Biso 1.000000     O
    O   1.0     0.649496     0.132279     0.953420  Biso 1.000000     O
    O   1.0     0.079458     0.486543     0.199076  Biso 1.000000     O
    O   1.0     0.000000     0.619342     0.169077  Biso 1.000000     O
    O   1.0     0.915250     0.798900     0.511288  Biso 1.000000     O
    O   1.0    -0.058353     0.829124     0.378795  Biso 1.000000     O
    O   1.0     0.897463     0.557403     0.994513  Biso 1.000000     O
    O   1.0     0.927684     0.428015     0.028685  Biso 1.000000     O
    O   1.0     0.470031     0.000000     0.825009  Biso 1.000000     O
    O   1.0     0.347585     0.040906     0.863375  Biso 1.000000     O
    O   1.0     0.800009     0.932816     0.451326  Biso 1.000000     O
    O   1.0     0.840830    -0.025814     0.328721  Biso 1.000000     O
    O   1.0     0.526135     0.867121     0.927688  Biso 1.000000     O
    O   1.0     0.399370     0.903397    -0.040890  Biso 1.000000     O
    O   1.0     0.000000     0.490553     0.903330  Biso 1.000000     O
    O   1.0     0.057168     0.361483     0.938545  Biso 1.000000     O
    O   1.0    -0.029667     0.095801     0.507968  Biso 1.000000     O
    O   1.0     0.939568     0.059710     0.636344  Biso 1.000000     O
    O   1.0     0.197502     0.546159     0.066158  Biso 1.000000     O
    O   1.0     0.158276     0.668943     0.000000  Biso 1.000000     O
    O   1.0     0.471079     0.063123     0.126346  Biso 1.000000     O
    O   1.0     0.598124     0.000000     0.089648  Biso 1.000000     O
   Zn   1.0    -0.036083    -0.026184     0.398722  Biso 1.000000    Zn
   Zn   1.0     0.425608     0.049332    -0.010036  Biso 1.000000    Zn
   Zn   1.0     0.074960     0.448206     0.064940  Biso 1.000000    Zn
   Zn   1.0     0.921534     0.933388     0.549708  Biso 1.000000    Zn
   Zn   1.0     0.000000     0.599816     0.000000  Biso 1.000000    Zn
   Zn   1.0     0.571702     0.000000     0.943869  Biso 1.000000    Zn
