#======================================================================

# CRYSTAL DATA

#----------------------------------------------------------------------

data_VESTA_phase_1


_pd_phase_name                         MOF
_cell_length_a                         13.35100
_cell_length_b                         15.21700
_cell_length_c                         18.67900
_cell_angle_alpha                      90.01900
_cell_angle_beta                       90.02200
_cell_angle_gamma                      90.02000
_symmetry_space_group_name_H-M         "P 1"
_symmetry_Int_Tables_number            1

loop_
_symmetry_equiv_pos_as_xyz
   "x, y, z"

loop_
   _atom_site_label
   _atom_site_occupancy
   _atom_site_fract_x
   _atom_site_fract_y
   _atom_site_fract_z
   _atom_site_adp_type
   _atom_site_B_iso_or_equiv
   _atom_site_type_symbol
    H   1.0     0.117538     0.402447     0.693858  Biso 1.000000     H
    H   1.0     0.011221     0.273521     0.731500  Biso 1.000000     H
    H   1.0     0.815406     0.436400     0.841885  Biso 1.000000     H
    H   1.0     0.915367     0.570791     0.810509  Biso 1.000000     H
    H   1.0     0.892325     0.590457     0.487521  Biso 1.000000     H
    H   1.0     0.027720     0.588433     0.582393  Biso 1.000000     H
    H   1.0     0.119269     0.839836     0.529263  Biso 1.000000     H
    H   1.0     0.990116     0.850477     0.430576  Biso 1.000000     H
    H   1.0     0.384367     0.598013     0.192896  Biso 1.000000     H
    H   1.0     0.490379     0.726772     0.231621  Biso 1.000000     H
    H   1.0     0.685580     0.563198     0.341937  Biso 1.000000     H
    H   1.0     0.586011     0.428955     0.309298  Biso 1.000000     H
    H   1.0     0.610618     0.408052     0.986513  Biso 1.000000     H
    H   1.0     0.475077     0.410637     0.081173  Biso 1.000000     H
    H   1.0     0.380786     0.160355     0.026688  Biso 1.000000     H
    H   1.0     0.509437     0.149555     0.927702  Biso 1.000000     H
    H   1.0     0.884181     0.902065     0.804749  Biso 1.000000     H
    H   1.0     0.990690     0.773205     0.767140  Biso 1.000000     H
    H   1.0     0.186537     0.936277     0.656922  Biso 1.000000     H
    H   1.0     0.086727     0.070605     0.688649  Biso 1.000000     H
    H   1.0     0.110624     0.090082     0.009427  Biso 1.000000     H
    H   1.0     0.974207     0.087729     0.915357  Biso 1.000000     H
    H   1.0     0.881981     0.338576     0.969648  Biso 1.000000     H
    H   1.0     0.012163     0.349480     0.067631  Biso 1.000000     H
    H   1.0     0.617268     0.097882     0.305252  Biso 1.000000     H
    H   1.0     0.511397     0.226461     0.266314  Biso 1.000000     H
    H   1.0     0.316073     0.062575     0.156209  Biso 1.000000     H
    H   1.0     0.415654     0.928513     0.188852  Biso 1.000000     H
    H   1.0     0.391938     0.907719     0.511022  Biso 1.000000     H
    H   1.0     0.528007     0.910104     0.416748  Biso 1.000000     H
    H   1.0     0.620132     0.659077     0.470505  Biso 1.000000     H
    H   1.0     0.490916     0.648449     0.569089  Biso 1.000000     H
    H   1.0     0.884817     0.596945     0.305747  Biso 1.000000     H
    H   1.0     0.990782     0.725704     0.267154  Biso 1.000000     H
    H   1.0     0.185852     0.562192     0.156656  Biso 1.000000     H
    H   1.0     0.086091     0.428036     0.188857  Biso 1.000000     H
    H   1.0     0.108238     0.408252     0.511649  Biso 1.000000     H
    H   1.0     0.972670     0.409840     0.416947  Biso 1.000000     H
    H   1.0     0.880872     0.158827     0.471184  Biso 1.000000     H
    H   1.0     0.009854     0.148886     0.570026  Biso 1.000000     H
    H   1.0     0.617741     0.401995     0.805195  Biso 1.000000     H
    H   1.0     0.511296     0.273300     0.767068  Biso 1.000000     H
    H   1.0     0.315380     0.436911     0.657399  Biso 1.000000     H
    H   1.0     0.415492     0.571068     0.689314  Biso 1.000000     H
    H   1.0     0.392399     0.590939     0.011097  Biso 1.000000     H
    H   1.0     0.528420     0.589031     0.916762  Biso 1.000000     H
    H   1.0     0.619380     0.840525     0.970413  Biso 1.000000     H
    H   1.0     0.490123     0.850737     0.069015  Biso 1.000000     H
    H   1.0     0.116848     0.097853     0.192962  Biso 1.000000     H
    H   1.0     0.010328     0.226320     0.231461  Biso 1.000000     H
    H   1.0     0.815541     0.062306     0.341715  Biso 1.000000     H
    H   1.0     0.915483     0.928358     0.309150  Biso 1.000000     H
    H   1.0     0.892061     0.909232     0.988053  Biso 1.000000     H
    H   1.0     0.027785     0.911017     0.082628  Biso 1.000000     H
    H   1.0     0.119985     0.660256     0.028007  Biso 1.000000     H
    H   1.0     0.990619     0.650008     0.929402  Biso 1.000000     H
    H   1.0     0.382884     0.901902     0.694122  Biso 1.000000     H
    H   1.0     0.489366     0.773335     0.732180  Biso 1.000000     H
    H   1.0     0.685343     0.937105     0.841825  Biso 1.000000     H
    H   1.0     0.585169     0.071153     0.810036  Biso 1.000000     H
    H   1.0     0.607518     0.090507     0.487375  Biso 1.000000     H
    H   1.0     0.472102     0.088717     0.582147  Biso 1.000000     H
    H   1.0     0.382094     0.340693     0.529517  Biso 1.000000     H
    H   1.0     0.511164     0.351039     0.430848  Biso 1.000000     H
    C   1.0     0.085928     0.573904     0.726191  Biso 1.000000     C
    C   1.0     0.000000     0.495912     0.750254  Biso 1.000000     C
    C   1.0     0.051855     0.411514     0.727570  Biso 1.000000     C
    C   1.0     0.993174     0.340392     0.747846  Biso 1.000000     C
    C   1.0     0.883446     0.431648     0.809910  Biso 1.000000     C
    C   1.0     0.939214     0.505972     0.792341  Biso 1.000000     C
    C   1.0     0.843366     0.727829     0.402221  Biso 1.000000     C
    C   1.0     0.930364     0.721579     0.453317  Biso 1.000000     C
    C   1.0     0.942202     0.646271     0.495413  Biso 1.000000     C
    C   1.0     0.015723     0.645337     0.548017  Biso 1.000000     C
    C   1.0     0.067217     0.786347     0.518096  Biso 1.000000     C
    C   1.0     0.996182     0.791918     0.463760  Biso 1.000000     C
    C   1.0     0.416202     0.426223     0.224281  Biso 1.000000     C
    C   1.0     0.476601     0.504197     0.248982  Biso 1.000000     C
    C   1.0     0.449896     0.588766     0.226762  Biso 1.000000     C
    C   1.0     0.508375     0.659793     0.247704  Biso 1.000000     C
    C   1.0     0.617760     0.568121     0.309708  Biso 1.000000     C
    C   1.0     0.562253     0.493901     0.291408  Biso 1.000000     C
    C   1.0     0.658174     0.270776     0.900633  Biso 1.000000     C
    C   1.0     0.571003     0.277576     0.951459  Biso 1.000000     C
    C   1.0     0.560025     0.352659     0.993981  Biso 1.000000     C
    C   1.0     0.486448     0.353848     0.046537  Biso 1.000000     C
    C   1.0     0.433357     0.213522     0.015771  Biso 1.000000     C
    C   1.0     0.504241     0.207818     0.961331  Biso 1.000000     C
    C   1.0     0.916000     0.073655     0.772517  Biso 1.000000     C
    C   1.0    -0.023241     0.995613     0.748621  Biso 1.000000     C
    C   1.0     0.949985     0.911180     0.771156  Biso 1.000000     C
    C   1.0     0.008698     0.840100     0.750828  Biso 1.000000     C
    C   1.0     0.118510     0.931465     0.688911  Biso 1.000000     C
    C   1.0     0.062833     0.000000     0.706645  Biso 1.000000     C
    C   1.0     0.159864     0.227448     0.094871  Biso 1.000000     C
    C   1.0     0.072381     0.220956     0.044181  Biso 1.000000     C
    C   1.0     0.060403     0.145714     0.001972  Biso 1.000000     C
    C   1.0     0.986274     0.144614     0.949778  Biso 1.000000     C
    C   1.0     0.934401     0.285268     0.980382  Biso 1.000000     C
    C   1.0     0.006046     0.291003     0.034322  Biso 1.000000     C
    C   1.0     0.585882     0.926094     0.273637  Biso 1.000000     C
    C   1.0     0.525203     0.003882     0.249047  Biso 1.000000     C
    C   1.0     0.551820     0.088493     0.271318  Biso 1.000000     C
    C   1.0     0.493375     0.159443     0.250305  Biso 1.000000     C
    C   1.0     0.383937     0.067633     0.188380  Biso 1.000000     C
    C   1.0     0.439488    -0.006529     0.206689  Biso 1.000000     C
    C   1.0     0.343147     0.770720     0.596484  Biso 1.000000     C
    C   1.0     0.430465     0.776938     0.545718  Biso 1.000000     C
    C   1.0     0.442187     0.852130     0.503474  Biso 1.000000     C
    C   1.0     0.516032     0.853221     0.451146  Biso 1.000000     C
    C   1.0     0.567935     0.712487     0.481491  Biso 1.000000     C
    C   1.0     0.496727     0.706866     0.535712  Biso 1.000000     C
    C   1.0     0.915875     0.425426     0.273729  Biso 1.000000     C
    C   1.0    -0.023254     0.503217     0.249350  Biso 1.000000     C
    C   1.0     0.950287     0.587733     0.271844  Biso 1.000000     C
    C   1.0     0.008781     0.658746     0.251036  Biso 1.000000     C
    C   1.0     0.118044     0.567149     0.188872  Biso 1.000000     C
    C   1.0     0.062406     0.492928     0.206956  Biso 1.000000     C
    C   1.0     0.157168     0.271435     0.597523  Biso 1.000000     C
    C   1.0     0.070023     0.277441     0.546514  Biso 1.000000     C
    C   1.0     0.058235     0.352458     0.504082  Biso 1.000000     C
    C   1.0     0.984644     0.353126     0.451527  Biso 1.000000     C
    C   1.0     0.932935     0.212401     0.482108  Biso 1.000000     C
    C   1.0     0.003969     0.207159     0.536490  Biso 1.000000     C
    C   1.0     0.586100     0.573757     0.773666  Biso 1.000000     C
    C   1.0     0.525311     0.495841     0.749284  Biso 1.000000     C
    C   1.0     0.551998     0.411272     0.771549  Biso 1.000000     C
    C   1.0     0.493251     0.340262     0.750947  Biso 1.000000     C
    C   1.0     0.383496     0.431941     0.689307  Biso 1.000000     C
    C   1.0     0.439323     0.506139     0.707207  Biso 1.000000     C
    C   1.0     0.342893     0.728151     0.096429  Biso 1.000000     C
    C   1.0     0.430272     0.721989     0.045704  Biso 1.000000     C
    C   1.0     0.442338     0.646765     0.003507  Biso 1.000000     C
    C   1.0     0.516184     0.645910     0.951141  Biso 1.000000     C
    C   1.0     0.567442     0.786905     0.981417  Biso 1.000000     C
    C   1.0     0.496216     0.792310     0.035654  Biso 1.000000     C
    C   1.0     0.085640     0.925978     0.224716  Biso 1.000000     C
    C   1.0     0.000000     0.003838     0.249016  Biso 1.000000     C
    C   1.0     0.051256     0.088441     0.226720  Biso 1.000000     C
    C   1.0     0.992549     0.159311     0.247563  Biso 1.000000     C
    C   1.0     0.883370     0.067428     0.309537  Biso 1.000000     C
    C   1.0     0.939069    -0.006654     0.291272  Biso 1.000000     C
    C   1.0     0.843255     0.772264     0.902098  Biso 1.000000     C
    C   1.0     0.930413     0.778477     0.953056  Biso 1.000000     C
    C   1.0     0.942168     0.853525     0.995519  Biso 1.000000     C
    C   1.0     0.015868     0.854291     0.048012  Biso 1.000000     C
    C   1.0     0.067737     0.713676     0.017213  Biso 1.000000     C
    C   1.0     0.996553     0.708299     0.962940  Biso 1.000000     C
    C   1.0     0.414325     0.073736     0.726043  Biso 1.000000     C
    C   1.0     0.475195     0.995848     0.750209  Biso 1.000000     C
    C   1.0     0.448575     0.911265     0.727822  Biso 1.000000     C
    C   1.0     0.507376     0.840310     0.748349  Biso 1.000000     C
    C   1.0     0.617160     0.932070     0.809995  Biso 1.000000     C
    C   1.0     0.561271     0.000000     0.792189  Biso 1.000000     C
    C   1.0     0.657365     0.227940     0.402310  Biso 1.000000     C
    C   1.0     0.570297     0.221884     0.453380  Biso 1.000000     C
    C   1.0     0.557984     0.146509     0.495336  Biso 1.000000     C
    C   1.0     0.484423     0.145694     0.547907  Biso 1.000000     C
    C   1.0     0.433751     0.286969     0.518251  Biso 1.000000     C
    C   1.0     0.504821     0.292416     0.463932  Biso 1.000000     C
    N   1.0     0.909942     0.350000     0.788426  Biso 1.000000     N
    N   1.0     0.076017     0.714961     0.560561  Biso 1.000000     N
    N   1.0     0.591320     0.649914     0.288590  Biso 1.000000     N
    N   1.0     0.425453     0.284608     0.058697  Biso 1.000000     N
    N   1.0     0.091938     0.849782     0.710256  Biso 1.000000     N
    N   1.0     0.925485     0.213997     0.937752  Biso 1.000000     N
    N   1.0     0.410448     0.149491     0.209391  Biso 1.000000     N
    N   1.0     0.576643     0.783767     0.438893  Biso 1.000000     N
    N   1.0     0.091693     0.648927     0.210142  Biso 1.000000     N
    N   1.0     0.924242     0.283484     0.439277  Biso 1.000000     N
    N   1.0     0.409968     0.350148     0.710413  Biso 1.000000     N
    N   1.0     0.576448     0.715616     0.938831  Biso 1.000000     N
    N   1.0     0.909640     0.149295     0.288438  Biso 1.000000     N
    N   1.0     0.076412     0.784761     0.060075  Biso 1.000000     N
    N   1.0     0.590668     0.850254     0.788885  Biso 1.000000     N
    N   1.0     0.424527     0.215513     0.560599  Biso 1.000000     N
    O   1.0     0.070750     0.647866     0.756354  Biso 1.000000     O
    O   1.0     0.147024     0.563053     0.674754  Biso 1.000000     O
    O   1.0     0.837010     0.796328     0.362502  Biso 1.000000     O
    O   1.0     0.778688     0.667157     0.403331  Biso 1.000000     O
    O   1.0     0.433198     0.351806     0.253259  Biso 1.000000     O
    O   1.0     0.353794     0.437353     0.173749  Biso 1.000000     O
    O   1.0     0.663091     0.203508     0.859487  Biso 1.000000     O
    O   1.0     0.724697     0.329903     0.903378  Biso 1.000000     O
    O   1.0     0.933274     0.147936     0.743467  Biso 1.000000     O
    O   1.0     0.852851     0.062664     0.822618  Biso 1.000000     O
    O   1.0     0.166400     0.296060     0.134509  Biso 1.000000     O
    O   1.0     0.224638     0.166912     0.093593  Biso 1.000000     O
    O   1.0     0.570832     0.851986     0.243580  Biso 1.000000     O
    O   1.0     0.646741     0.937128     0.325180  Biso 1.000000     O
    O   1.0     0.337507     0.703366     0.637510  Biso 1.000000     O
    O   1.0     0.277402     0.830401     0.593846  Biso 1.000000     O
    O   1.0     0.931395     0.351294     0.243887  Biso 1.000000     O
    O   1.0     0.854341     0.436580     0.324835  Biso 1.000000     O
    O   1.0     0.163583     0.203203     0.637504  Biso 1.000000     O
    O   1.0     0.221968     0.332026     0.596112  Biso 1.000000     O
    O   1.0     0.570820     0.647833     0.743643  Biso 1.000000     O
    O   1.0     0.647146     0.562827     0.825089  Biso 1.000000     O
    O   1.0     0.337160     0.795666     0.137331  Biso 1.000000     O
    O   1.0     0.277277     0.668299     0.093859  Biso 1.000000     O
    O   1.0     0.067485     0.851456     0.253185  Biso 1.000000     O
    O   1.0     0.149470     0.937212     0.175139  Biso 1.000000     O
    O   1.0     0.836785     0.703774     0.862337  Biso 1.000000     O
    O   1.0     0.778564     0.832886     0.903349  Biso 1.000000     O
    O   1.0     0.429368     0.147731     0.756297  Biso 1.000000     O
    O   1.0     0.353397     0.062868     0.674516  Biso 1.000000     O
    O   1.0     0.664021     0.296395     0.362575  Biso 1.000000     O
    O   1.0     0.721819     0.167110     0.403442  Biso 1.000000     O
   Cd   1.0     0.171019     0.722244     0.667810  Biso 1.000000    Cd
   Cd   1.0     0.331822     0.276996     0.166333  Biso 1.000000    Cd
   Cd   1.0     0.830682     0.222142     0.830374  Biso 1.000000    Cd
   Cd   1.0     0.670990     0.777165     0.331358  Biso 1.000000    Cd
   Cd   1.0     0.830140     0.276573     0.331514  Biso 1.000000    Cd
   Cd   1.0     0.670719     0.723035     0.831333  Biso 1.000000    Cd
   Cd   1.0     0.170618     0.776669     0.167498  Biso 1.000000    Cd
   Cd   1.0     0.329910     0.222769     0.668136  Biso 1.000000    Cd
