#======================================================================

# CRYSTAL DATA

#----------------------------------------------------------------------

data_VESTA_phase_1


_pd_phase_name                         MOF
_cell_length_a                         12.58400
_cell_length_b                         15.23000
_cell_length_c                         19.94600
_cell_angle_alpha                      89.99800
_cell_angle_beta                       90.00600
_cell_angle_gamma                      90.02100
_symmetry_space_group_name_H-M         "P 1"
_symmetry_Int_Tables_number            1

loop_
_symmetry_equiv_pos_as_xyz
   "x, y, z"

loop_
   _atom_site_label
   _atom_site_occupancy
   _atom_site_fract_x
   _atom_site_fract_y
   _atom_site_fract_z
   _atom_site_adp_type
   _atom_site_B_iso_or_equiv
   _atom_site_type_symbol
    H   1.0     0.418747     0.419515     0.312809  Biso 1.000000     H
    H   1.0     0.313770     0.553076     0.345039  Biso 1.000000     H
    H   1.0     0.504161     0.715359     0.228526  Biso 1.000000     H
    H   1.0     0.613949     0.587064     0.189193  Biso 1.000000     H
    H   1.0     0.407909     0.413459     0.988517  Biso 1.000000     H
    H   1.0     0.539176     0.405871     0.084695  Biso 1.000000     H
    H   1.0     0.611115     0.146786     0.041958  Biso 1.000000     H
    H   1.0     0.485563     0.145143     0.943034  Biso 1.000000     H
    H   1.0     0.081236     0.580495     0.812811  Biso 1.000000     H
    H   1.0     0.186224     0.446932     0.845017  Biso 1.000000     H
    H   1.0    -0.004259     0.284679     0.728514  Biso 1.000000     H
    H   1.0     0.885969     0.412989     0.689184  Biso 1.000000     H
    H   1.0     0.091988     0.586553     0.488533  Biso 1.000000     H
    H   1.0     0.960780     0.594145     0.584703  Biso 1.000000     H
    H   1.0     0.888817     0.853231     0.541952  Biso 1.000000     H
    H   1.0     0.000000     0.854876     0.443048  Biso 1.000000     H
    H   1.0     0.581233     0.919557     0.187185  Biso 1.000000     H
    H   1.0     0.686186     0.053169     0.154936  Biso 1.000000     H
    H   1.0     0.495803     0.215325     0.271456  Biso 1.000000     H
    H   1.0     0.386025     0.086962     0.310799  Biso 1.000000     H
    H   1.0     0.591980     0.913464     0.511534  Biso 1.000000     H
    H   1.0     0.460811     0.905833     0.415320  Biso 1.000000     H
    H   1.0     0.388851     0.646679     0.457973  Biso 1.000000     H
    H   1.0     0.514328     0.645068     0.556918  Biso 1.000000     H
    H   1.0     0.918733     0.080457     0.687171  Biso 1.000000     H
    H   1.0     0.813743     0.946853     0.654933  Biso 1.000000     H
    H   1.0     0.000000     0.784682     0.771445  Biso 1.000000     H
    H   1.0     0.113964     0.913039     0.810787  Biso 1.000000     H
    H   1.0     0.907917     0.086523     0.011512  Biso 1.000000     H
    H   1.0     0.039113     0.094160     0.915312  Biso 1.000000     H
    H   1.0     0.111134     0.353280     0.958013  Biso 1.000000     H
    H   1.0    -0.014365     0.354891     0.056953  Biso 1.000000     H
    H   1.0     0.581188     0.580236     0.687419  Biso 1.000000     H
    H   1.0     0.686401     0.446826     0.655077  Biso 1.000000     H
    H   1.0     0.496200     0.284148     0.771415  Biso 1.000000     H
    H   1.0     0.386154     0.412300     0.810797  Biso 1.000000     H
    H   1.0     0.591940     0.586505     0.011576  Biso 1.000000     H
    H   1.0     0.460672     0.593992     0.915405  Biso 1.000000     H
    H   1.0     0.388724     0.853128     0.958010  Biso 1.000000     H
    H   1.0     0.514264     0.854848     0.056942  Biso 1.000000     H
    H   1.0     0.918747     0.419537     0.187150  Biso 1.000000     H
    H   1.0     0.813786     0.553122     0.154939  Biso 1.000000     H
    H   1.0     0.000000     0.715339     0.271499  Biso 1.000000     H
    H   1.0     0.113982     0.587016     0.310818  Biso 1.000000     H
    H   1.0     0.907955     0.413471     0.511451  Biso 1.000000     H
    H   1.0     0.039145     0.405888     0.415267  Biso 1.000000     H
    H   1.0     0.111149     0.146809     0.458016  Biso 1.000000     H
    H   1.0    -0.014350     0.145160     0.556936  Biso 1.000000     H
    H   1.0     0.418725     0.080279     0.812786  Biso 1.000000     H
    H   1.0     0.313741     0.946699     0.845075  Biso 1.000000     H
    H   1.0     0.504143     0.784445     0.728631  Biso 1.000000     H
    H   1.0     0.613917     0.912795     0.689241  Biso 1.000000     H
    H   1.0     0.407922     0.086542     0.488488  Biso 1.000000     H
    H   1.0     0.539145     0.094136     0.584671  Biso 1.000000     H
    H   1.0     0.611171     0.353278     0.542018  Biso 1.000000     H
    H   1.0     0.485656     0.354918     0.443091  Biso 1.000000     H
    H   1.0     0.081245     0.919579     0.312852  Biso 1.000000     H
    H   1.0     0.186205     0.053197     0.345089  Biso 1.000000     H
    H   1.0    -0.004189     0.215336     0.228532  Biso 1.000000     H
    H   1.0     0.886024     0.086967     0.189203  Biso 1.000000     H
    H   1.0     0.092020     0.913466     0.988466  Biso 1.000000     H
    H   1.0     0.960846     0.905852     0.084676  Biso 1.000000     H
    H   1.0     0.888798     0.646726     0.041998  Biso 1.000000     H
    H   1.0     0.000000     0.645087     0.943063  Biso 1.000000     H
    C   1.0     0.588991     0.416150     0.224674  Biso 1.000000     C
    C   1.0     0.525799     0.493923     0.249051  Biso 1.000000     C
    C   1.0     0.440334     0.483990     0.293334  Biso 1.000000     C
    C   1.0     0.382028     0.557948     0.311640  Biso 1.000000     C
    C   1.0     0.488409     0.648787     0.245892  Biso 1.000000     C
    C   1.0     0.549255     0.577907     0.224775  Biso 1.000000     C
    C   1.0     0.351329     0.279381     0.906274  Biso 1.000000     C
    C   1.0     0.436424     0.279206     0.959486  Biso 1.000000     C
    C   1.0     0.452705     0.353856    -0.000959  Biso 1.000000     C
    C   1.0     0.523642     0.349618     0.052333  Biso 1.000000     C
    C   1.0     0.564142     0.204229     0.028403  Biso 1.000000     C
    C   1.0     0.495432     0.203678     0.973737  Biso 1.000000     C
    C   1.0     0.911007     0.583911     0.724668  Biso 1.000000     C
    C   1.0    -0.025883     0.506107     0.749073  Biso 1.000000     C
    C   1.0     0.059652     0.516031     0.793314  Biso 1.000000     C
    C   1.0     0.117933     0.442062     0.811637  Biso 1.000000     C
    C   1.0     0.011504     0.351246     0.745886  Biso 1.000000     C
    C   1.0     0.950695     0.422140     0.724751  Biso 1.000000     C
    C   1.0     0.148503     0.720596     0.406264  Biso 1.000000     C
    C   1.0     0.063443     0.720802     0.459487  Biso 1.000000     C
    C   1.0     0.047204     0.646164     0.499042  Biso 1.000000     C
    C   1.0     0.976291     0.650398     0.552335  Biso 1.000000     C
    C   1.0     0.935781     0.795787     0.528398  Biso 1.000000     C
    C   1.0     0.000000     0.796343     0.473756  Biso 1.000000     C
    C   1.0     0.411011     0.916071     0.275318  Biso 1.000000     C
    C   1.0     0.474163     0.993899     0.250932  Biso 1.000000     C
    C   1.0     0.559649     0.984017     0.206665  Biso 1.000000     C
    C   1.0     0.617938     0.057993     0.188343  Biso 1.000000     C
    C   1.0     0.511556     0.148762     0.254092  Biso 1.000000     C
    C   1.0     0.450729     0.077842     0.275224  Biso 1.000000     C
    C   1.0     0.648493     0.779395     0.593761  Biso 1.000000     C
    C   1.0     0.563432     0.779180     0.540529  Biso 1.000000     C
    C   1.0     0.547195     0.853833     0.500999  Biso 1.000000     C
    C   1.0     0.476309     0.849576     0.447679  Biso 1.000000     C
    C   1.0     0.435798     0.704148     0.471561  Biso 1.000000     C
    C   1.0     0.504468     0.703613     0.526229  Biso 1.000000     C
    C   1.0     0.088958     0.083932     0.775315  Biso 1.000000     C
    C   1.0     0.000000     0.006103     0.750907  Biso 1.000000     C
    C   1.0     0.940305     0.015996     0.706660  Biso 1.000000     C
    C   1.0     0.882013     0.942023     0.688331  Biso 1.000000     C
    C   1.0     0.988417     0.851246     0.754080  Biso 1.000000     C
    C   1.0     0.049239     0.922164     0.775218  Biso 1.000000     C
    C   1.0     0.851367     0.220604     0.093719  Biso 1.000000     C
    C   1.0     0.936539     0.220774     0.040565  Biso 1.000000     C
    C   1.0     0.952678     0.146162     0.000000  Biso 1.000000     C
    C   1.0     0.023624     0.150409     0.947676  Biso 1.000000     C
    C   1.0     0.064166     0.295817     0.971586  Biso 1.000000     C
    C   1.0    -0.004572     0.296369     0.026233  Biso 1.000000     C
    C   1.0     0.410783     0.583039     0.775615  Biso 1.000000     C
    C   1.0     0.474237     0.505547     0.751064  Biso 1.000000     C
    C   1.0     0.559698     0.515696     0.706816  Biso 1.000000     C
    C   1.0     0.618136     0.441830     0.688457  Biso 1.000000     C
    C   1.0     0.511853     0.350753     0.754102  Biso 1.000000     C
    C   1.0     0.450877     0.421513     0.775246  Biso 1.000000     C
    C   1.0     0.648503     0.720610     0.093758  Biso 1.000000     C
    C   1.0     0.563381     0.720766     0.040563  Biso 1.000000     C
    C   1.0     0.547149     0.646099     0.000000  Biso 1.000000     C
    C   1.0     0.476199     0.650281     0.947733  Biso 1.000000     C
    C   1.0     0.435688     0.795693     0.971593  Biso 1.000000     C
    C   1.0     0.504413     0.796296     0.026254  Biso 1.000000     C
    C   1.0     0.088964     0.416113     0.275312  Biso 1.000000     C
    C   1.0     0.000000     0.493919     0.250898  Biso 1.000000     C
    C   1.0     0.940320     0.483996     0.206663  Biso 1.000000     C
    C   1.0     0.882055     0.557973     0.188339  Biso 1.000000     C
    C   1.0     0.988456     0.648777     0.254113  Biso 1.000000     C
    C   1.0     0.049255     0.577877     0.275249  Biso 1.000000     C
    C   1.0     0.851472     0.279415     0.593709  Biso 1.000000     C
    C   1.0     0.936546     0.279230     0.540500  Biso 1.000000     C
    C   1.0     0.952744     0.353864     0.500935  Biso 1.000000     C
    C   1.0     0.023652     0.349637     0.447640  Biso 1.000000     C
    C   1.0     0.064186     0.204251     0.471575  Biso 1.000000     C
    C   1.0    -0.004510     0.203688     0.526220  Biso 1.000000     C
    C   1.0     0.588970     0.083653     0.724646  Biso 1.000000     C
    C   1.0     0.525796     0.005872     0.749082  Biso 1.000000     C
    C   1.0     0.440287     0.015803     0.793324  Biso 1.000000     C
    C   1.0     0.381993     0.941839     0.811675  Biso 1.000000     C
    C   1.0     0.488371     0.851017     0.745970  Biso 1.000000     C
    C   1.0     0.549198     0.921919     0.724804  Biso 1.000000     C
    C   1.0     0.351421     0.220616     0.406265  Biso 1.000000     C
    C   1.0     0.436509     0.220817     0.459484  Biso 1.000000     C
    C   1.0     0.452725     0.146165     0.499018  Biso 1.000000     C
    C   1.0     0.523650     0.150398     0.552317  Biso 1.000000     C
    C   1.0     0.564200     0.295819     0.528436  Biso 1.000000     C
    C   1.0     0.495494     0.296374     0.473784  Biso 1.000000     C
    C   1.0     0.911032     0.916085     0.224688  Biso 1.000000     C
    C   1.0    -0.025852     0.993918     0.249100  Biso 1.000000     C
    C   1.0     0.059667     0.984034     0.293353  Biso 1.000000     C
    C   1.0     0.117948     0.058014     0.311680  Biso 1.000000     C
    C   1.0     0.011560     0.148777     0.245910  Biso 1.000000     C
    C   1.0     0.950746     0.077852     0.224775  Biso 1.000000     C
    C   1.0     0.148558     0.779409     0.906257  Biso 1.000000     C
    C   1.0     0.063452     0.779186     0.959459  Biso 1.000000     C
    C   1.0     0.047221     0.853841    -0.000989  Biso 1.000000     C
    C   1.0     0.976332     0.849594     0.052319  Biso 1.000000     C
    C   1.0     0.935774     0.704184     0.028424  Biso 1.000000     C
    C   1.0     0.000000     0.703632     0.973752  Biso 1.000000     C
    N   1.0     0.405846     0.639261     0.288816  Biso 1.000000     N
    N   1.0     0.577198     0.275477     0.067844  Biso 1.000000     N
    N   1.0     0.094087     0.360758     0.788807  Biso 1.000000     N
    N   1.0     0.922741     0.724540     0.567843  Biso 1.000000     N
    N   1.0     0.594114     0.139290     0.211164  Biso 1.000000     N
    N   1.0     0.422774     0.775407     0.432134  Biso 1.000000     N
    N   1.0     0.905840     0.860725     0.711156  Biso 1.000000     N
    N   1.0     0.077164     0.224576     0.932140  Biso 1.000000     N
    N   1.0     0.594425     0.360460     0.711210  Biso 1.000000     N
    N   1.0     0.422641     0.724407     0.932184  Biso 1.000000     N
    N   1.0     0.905883     0.639274     0.211183  Biso 1.000000     N
    N   1.0     0.077201     0.275497     0.432126  Biso 1.000000     N
    N   1.0     0.405805     0.860518     0.788888  Biso 1.000000     N
    N   1.0     0.577221     0.224551     0.567857  Biso 1.000000     N
    N   1.0     0.094128     0.139306     0.288841  Biso 1.000000     N
    N   1.0     0.922766     0.775438     0.067854  Biso 1.000000     N
    O   1.0     0.573787     0.341927     0.252812  Biso 1.000000     O
    O   1.0     0.651780     0.427205     0.175552  Biso 1.000000     O
    O   1.0     0.289448     0.344426     0.903145  Biso 1.000000     O
    O   1.0     0.343384     0.210876     0.869100  Biso 1.000000     O
    O   1.0     0.926217     0.658116     0.752827  Biso 1.000000     O
    O   1.0     0.848171     0.572889     0.675554  Biso 1.000000     O
    O   1.0     0.210170     0.655430     0.403045  Biso 1.000000     O
    O   1.0     0.156610     0.789160     0.369164  Biso 1.000000     O
    O   1.0     0.426202     0.841875     0.247157  Biso 1.000000     O
    O   1.0     0.348223     0.927057     0.324445  Biso 1.000000     O
    O   1.0     0.710279     0.844526     0.596937  Biso 1.000000     O
    O   1.0     0.656504     0.710852     0.630891  Biso 1.000000     O
    O   1.0     0.073776     0.158128     0.747145  Biso 1.000000     O
    O   1.0     0.151753     0.072937     0.824445  Biso 1.000000     O
    O   1.0     0.789606     0.155461     0.096929  Biso 1.000000     O
    O   1.0     0.843376     0.289148     0.130848  Biso 1.000000     O
    O   1.0     0.425970     0.657457     0.747697  Biso 1.000000     O
    O   1.0     0.347928     0.571515     0.824600  Biso 1.000000     O
    O   1.0     0.710217     0.655470     0.096961  Biso 1.000000     O
    O   1.0     0.656590     0.789169     0.130861  Biso 1.000000     O
    O   1.0     0.073778     0.341913     0.247144  Biso 1.000000     O
    O   1.0     0.151801     0.427144     0.324424  Biso 1.000000     O
    O   1.0     0.789782     0.344557     0.596929  Biso 1.000000     O
    O   1.0     0.843413     0.210836     0.630810  Biso 1.000000     O
    O   1.0     0.573857     0.157856     0.752808  Biso 1.000000     O
    O   1.0     0.651732     0.072603     0.675516  Biso 1.000000     O
    O   1.0     0.289639     0.155484     0.403073  Biso 1.000000     O
    O   1.0     0.343409     0.289168     0.369145  Biso 1.000000     O
    O   1.0     0.926221     0.841886     0.252852  Biso 1.000000     O
    O   1.0     0.848223     0.927081     0.175564  Biso 1.000000     O
    O   1.0     0.210234     0.844585     0.903037  Biso 1.000000     O
    O   1.0     0.156675     0.710799     0.869192  Biso 1.000000     O
   Cd   1.0     0.674681     0.266264     0.169354  Biso 1.000000    Cd
   Cd   1.0     0.825261     0.733763     0.669351  Biso 1.000000    Cd
   Cd   1.0     0.325264     0.766171     0.330627  Biso 1.000000    Cd
   Cd   1.0     0.174638     0.233843     0.830630  Biso 1.000000    Cd
   Cd   1.0     0.325284     0.733373     0.830644  Biso 1.000000    Cd
   Cd   1.0     0.174699     0.266269     0.330637  Biso 1.000000    Cd
   Cd   1.0     0.674806     0.233580     0.669345  Biso 1.000000    Cd
   Cd   1.0     0.825299     0.766193     0.169369  Biso 1.000000    Cd
