#======================================================================

# CRYSTAL DATA

#----------------------------------------------------------------------

data_VESTA_phase_1


_pd_phase_name                         MOF
_cell_length_a                         18.63600
_cell_length_b                         18.74600
_cell_length_c                         18.22700
_cell_angle_alpha                      89.98700
_cell_angle_beta                       90.12400
_cell_angle_gamma                      103.23100
_symmetry_space_group_name_H-M         "P 1"
_symmetry_Int_Tables_number            1

loop_
_symmetry_equiv_pos_as_xyz
   "x, y, z"

loop_
   _atom_site_label
   _atom_site_occupancy
   _atom_site_fract_x
   _atom_site_fract_y
   _atom_site_fract_z
   _atom_site_adp_type
   _atom_site_B_iso_or_equiv
   _atom_site_type_symbol
    H   1.0     0.300442     0.439265     0.655257  Biso 1.000000     H
    H   1.0     0.300464     0.939323     0.655270  Biso 1.000000     H
    H   1.0     0.800429     0.439275     0.655258  Biso 1.000000     H
    H   1.0     0.800461     0.939344     0.655276  Biso 1.000000     H
    H   1.0     0.491077     0.117164     0.679231  Biso 1.000000     H
    H   1.0     0.491114     0.617056     0.679109  Biso 1.000000     H
    H   1.0     0.991059     0.117193     0.679268  Biso 1.000000     H
    H   1.0     0.991095     0.617070     0.679118  Biso 1.000000     H
    H   1.0     0.370396     0.027394     0.870184  Biso 1.000000     H
    H   1.0     0.370458     0.527415     0.870116  Biso 1.000000     H
    H   1.0     0.870367     0.027393     0.870204  Biso 1.000000     H
    H   1.0     0.870437     0.527420     0.870121  Biso 1.000000     H
    H   1.0     0.095752     0.313131     0.775915  Biso 1.000000     H
    H   1.0     0.095740     0.813113     0.775899  Biso 1.000000     H
    H   1.0     0.595741     0.313127     0.775911  Biso 1.000000     H
    H   1.0     0.595729     0.813111     0.775902  Biso 1.000000     H
    H   1.0     0.188162     0.409527     0.713735  Biso 1.000000     H
    H   1.0     0.188152     0.909525     0.713739  Biso 1.000000     H
    H   1.0     0.688150     0.409526     0.713734  Biso 1.000000     H
    H   1.0     0.688139     0.909525     0.713745  Biso 1.000000     H
    H   1.0     0.330131     0.411022     0.902363  Biso 1.000000     H
    H   1.0     0.330104     0.910991     0.902374  Biso 1.000000     H
    H   1.0     0.830118     0.411020     0.902362  Biso 1.000000     H
    H   1.0     0.830092     0.910989     0.902380  Biso 1.000000     H
    H   1.0     0.228924     0.318852     0.959590  Biso 1.000000     H
    H   1.0     0.228896     0.818814     0.959584  Biso 1.000000     H
    H   1.0     0.728912     0.318849     0.959588  Biso 1.000000     H
    H   1.0     0.728884     0.818811     0.959589  Biso 1.000000     H
    H   1.0     0.199663     0.311103     0.155314  Biso 1.000000     H
    H   1.0     0.199659     0.811126     0.155321  Biso 1.000000     H
    H   1.0     0.699650     0.311105     0.155312  Biso 1.000000     H
    H   1.0     0.699652     0.811130     0.155325  Biso 1.000000     H
    H   1.0     0.009188     0.133275     0.179166  Biso 1.000000     H
    H   1.0     0.009200     0.633277     0.179163  Biso 1.000000     H
    H   1.0     0.509182     0.133269     0.179164  Biso 1.000000     H
    H   1.0     0.509198     0.633276     0.179169  Biso 1.000000     H
    H   1.0     0.130152     0.223637     0.370267  Biso 1.000000     H
    H   1.0     0.130158     0.723641     0.370269  Biso 1.000000     H
    H   1.0     0.630142     0.223639     0.370265  Biso 1.000000     H
    H   1.0     0.630152     0.723645     0.370274  Biso 1.000000     H
    H   1.0     0.404713     0.437586     0.276385  Biso 1.000000     H
    H   1.0     0.404703     0.937627     0.276405  Biso 1.000000     H
    H   1.0     0.904700     0.437591     0.276383  Biso 1.000000     H
    H   1.0     0.904687     0.937652     0.276411  Biso 1.000000     H
    H   1.0     0.312362     0.340883     0.214182  Biso 1.000000     H
    H   1.0     0.312361     0.840927     0.214192  Biso 1.000000     H
    H   1.0     0.812347     0.340893     0.214179  Biso 1.000000     H
    H   1.0     0.812350     0.840949     0.214196  Biso 1.000000     H
    H   1.0     0.170532     0.339869     0.402225  Biso 1.000000     H
    H   1.0     0.170533     0.839872     0.402244  Biso 1.000000     H
    H   1.0     0.670522     0.339870     0.402226  Biso 1.000000     H
    H   1.0     0.670527     0.839866     0.402256  Biso 1.000000     H
    H   1.0     0.271601     0.432380     0.459469  Biso 1.000000     H
    H   1.0     0.271597     0.932363     0.459502  Biso 1.000000     H
    H   1.0     0.771594     0.432375     0.459473  Biso 1.000000     H
    H   1.0     0.771588     0.932359     0.459517  Biso 1.000000     H
    H   1.0     0.199484     0.060639     0.344708  Biso 1.000000     H
    H   1.0     0.199446     0.560580     0.344683  Biso 1.000000     H
    H   1.0     0.699466     0.060622     0.344707  Biso 1.000000     H
    H   1.0     0.699428     0.560579     0.344674  Biso 1.000000     H
    H   1.0     0.008920     0.382696     0.320544  Biso 1.000000     H
    H   1.0     0.008882     0.882797     0.320701  Biso 1.000000     H
    H   1.0     0.508915     0.382685     0.320517  Biso 1.000000     H
    H   1.0     0.508885     0.882766     0.320669  Biso 1.000000     H
    H   1.0     0.129682     0.472617     0.129687  Biso 1.000000     H
    H   1.0     0.129602     0.972589     0.129775  Biso 1.000000     H
    H   1.0     0.629681     0.472624     0.129670  Biso 1.000000     H
    H   1.0     0.629609     0.972596     0.129759  Biso 1.000000     H
    H   1.0     0.404236     0.186850     0.224041  Biso 1.000000     H
    H   1.0     0.404250     0.686859     0.224048  Biso 1.000000     H
    H   1.0     0.904227     0.186856     0.224044  Biso 1.000000     H
    H   1.0     0.904240     0.686868     0.224050  Biso 1.000000     H
    H   1.0     0.311810     0.090478     0.286240  Biso 1.000000     H
    H   1.0     0.311825     0.590464     0.286220  Biso 1.000000     H
    H   1.0     0.811800     0.090481     0.286240  Biso 1.000000     H
    H   1.0     0.811816     0.590465     0.286214  Biso 1.000000     H
    H   1.0     0.169855     0.088968     0.097599  Biso 1.000000     H
    H   1.0     0.169885     0.588994     0.097575  Biso 1.000000     H
    H   1.0     0.669848     0.088977     0.097597  Biso 1.000000     H
    H   1.0     0.669882     0.588999     0.097564  Biso 1.000000     H
    H   1.0     0.271073     0.181113     0.040360  Biso 1.000000     H
    H   1.0     0.271102     0.681155     0.040360  Biso 1.000000     H
    H   1.0     0.771066     0.181123     0.040361  Biso 1.000000     H
    H   1.0     0.771099     0.681165     0.040356  Biso 1.000000     H
    H   1.0     0.300287     0.188862     0.844630  Biso 1.000000     H
    H   1.0     0.300286     0.688826     0.844624  Biso 1.000000     H
    H   1.0     0.800275     0.188858     0.844631  Biso 1.000000     H
    H   1.0     0.800279     0.688825     0.844621  Biso 1.000000     H
    H   1.0     0.490762     0.366692     0.820772  Biso 1.000000     H
    H   1.0     0.490744     0.866678     0.820778  Biso 1.000000     H
    H   1.0     0.990750     0.366689     0.820776  Biso 1.000000     H
    H   1.0     0.990737     0.866677     0.820776  Biso 1.000000     H
    H   1.0     0.369788     0.276334     0.629677  Biso 1.000000     H
    H   1.0     0.369779     0.776322     0.629678  Biso 1.000000     H
    H   1.0     0.869778     0.276333     0.629679  Biso 1.000000     H
    H   1.0     0.869771     0.776323     0.629675  Biso 1.000000     H
    H   1.0     0.095252     0.062333     0.723568  Biso 1.000000     H
    H   1.0     0.095269     0.562257     0.723538  Biso 1.000000     H
    H   1.0     0.595247     0.062315     0.723563  Biso 1.000000     H
    H   1.0     0.595264     0.562248     0.723531  Biso 1.000000     H
    H   1.0     0.187592     0.159048     0.785768  Biso 1.000000     H
    H   1.0     0.187588     0.658980     0.785751  Biso 1.000000     H
    H   1.0     0.687579     0.159034     0.785766  Biso 1.000000     H
    H   1.0     0.687577     0.658976     0.785745  Biso 1.000000     H
    H   1.0     0.329410     0.160099     0.597711  Biso 1.000000     H
    H   1.0     0.329414     0.660094     0.597690  Biso 1.000000     H
    H   1.0     0.829398     0.160109     0.597705  Biso 1.000000     H
    H   1.0     0.829405     0.660102     0.597684  Biso 1.000000     H
    H   1.0     0.228348     0.067599     0.540463  Biso 1.000000     H
    H   1.0     0.228368     0.567605     0.540424  Biso 1.000000     H
    H   1.0     0.728342     0.067607     0.540454  Biso 1.000000     H
    H   1.0     0.728363     0.567610     0.540416  Biso 1.000000     H
    C   1.0     0.327841     0.475184     0.767321  Biso 1.000000     C
    C   1.0     0.327821     0.975195     0.767358  Biso 1.000000     C
    C   1.0     0.827828     0.475186     0.767324  Biso 1.000000     C
    C   1.0     0.827808     0.975201     0.767370  Biso 1.000000     C
    C   1.0     0.337221     0.477910     0.690847  Biso 1.000000     C
    C   1.0     0.337221     0.977960     0.690886  Biso 1.000000     C
    C   1.0     0.837210     0.477915     0.690850  Biso 1.000000     C
    C   1.0     0.837215     0.977977     0.690898  Biso 1.000000     C
    C   1.0     0.396151     0.028316     0.659118  Biso 1.000000     C
    C   1.0     0.396161     0.528214     0.659043  Biso 1.000000     C
    C   1.0     0.896141     0.028348     0.659142  Biso 1.000000     C
    C   1.0     0.896146     0.528226     0.659048  Biso 1.000000     C
    C   1.0     0.445325     0.077630     0.703536  Biso 1.000000     C
    C   1.0     0.445350     0.577546     0.703424  Biso 1.000000     C
    C   1.0     0.945312     0.077652     0.703570  Biso 1.000000     C
    C   1.0     0.945338     0.577552     0.703434  Biso 1.000000     C
    C   1.0     0.435147     0.077294     0.779501  Biso 1.000000     C
    C   1.0     0.435188     0.577253     0.779391  Biso 1.000000     C
    C   1.0     0.935126     0.077307     0.779535  Biso 1.000000     C
    C   1.0     0.935168     0.577262     0.779399  Biso 1.000000     C
    C   1.0     0.376945     0.026022     0.810883  Biso 1.000000     C
    C   1.0     0.376983     0.526017     0.810814  Biso 1.000000     C
    C   1.0     0.876926     0.026024     0.810905  Biso 1.000000     C
    C   1.0     0.876969     0.526018     0.810820  Biso 1.000000     C
    C   1.0     0.147992     0.337273     0.802516  Biso 1.000000     C
    C   1.0     0.147977     0.837254     0.802505  Biso 1.000000     C
    C   1.0     0.647981     0.337269     0.802512  Biso 1.000000     C
    C   1.0     0.647966     0.837251     0.802509  Biso 1.000000     C
    C   1.0     0.201113     0.390212     0.767393  Biso 1.000000     C
    C   1.0     0.201097     0.890206     0.767397  Biso 1.000000     C
    C   1.0     0.701099     0.390214     0.767393  Biso 1.000000     C
    C   1.0     0.701085     0.890207     0.767403  Biso 1.000000     C
    C   1.0     0.268751     0.419404     0.802309  Biso 1.000000     C
    C   1.0     0.268731     0.919396     0.802323  Biso 1.000000     C
    C   1.0     0.768736     0.419407     0.802312  Biso 1.000000     C
    C   1.0     0.768718     0.919398     0.802330  Biso 1.000000     C
    C   1.0     0.278366     0.392644     0.872831  Biso 1.000000     C
    C   1.0     0.278340     0.892619     0.872839  Biso 1.000000     C
    C   1.0     0.778352     0.392644     0.872832  Biso 1.000000     C
    C   1.0     0.778328     0.892619     0.872845  Biso 1.000000     C
    C   1.0     0.222450     0.340591     0.905232  Biso 1.000000     C
    C   1.0     0.222425     0.840556     0.905227  Biso 1.000000     C
    C   1.0     0.722438     0.340586     0.905229  Biso 1.000000     C
    C   1.0     0.722414     0.840552     0.905231  Biso 1.000000     C
    C   1.0     0.407890     0.028938     0.577962  Biso 1.000000     C
    C   1.0     0.407842     0.528785     0.577881  Biso 1.000000     C
    C   1.0     0.907901     0.028990     0.577988  Biso 1.000000     C
    C   1.0     0.907834     0.528797     0.577887  Biso 1.000000     C
    C   1.0     0.486506     0.131348     0.827347  Biso 1.000000     C
    C   1.0     0.486567     0.631352     0.827173  Biso 1.000000     C
    C   1.0     0.986481     0.131348     0.827395  Biso 1.000000     C
    C   1.0     0.986550     0.631354     0.827185  Biso 1.000000     C
    C   1.0     0.172684     0.275391     0.267413  Biso 1.000000     C
    C   1.0     0.172678     0.775411     0.267417  Biso 1.000000     C
    C   1.0     0.672670     0.275396     0.267410  Biso 1.000000     C
    C   1.0     0.672670     0.775418     0.267422  Biso 1.000000     C
    C   1.0     0.163073     0.272487     0.190937  Biso 1.000000     C
    C   1.0     0.163067     0.772509     0.190940  Biso 1.000000     C
    C   1.0     0.663059     0.272490     0.190935  Biso 1.000000     C
    C   1.0     0.663059     0.772514     0.190945  Biso 1.000000     C
    C   1.0     0.104052     0.222078     0.159135  Biso 1.000000     C
    C   1.0     0.104051     0.722094     0.159134  Biso 1.000000     C
    C   1.0     0.604041     0.222077     0.159132  Biso 1.000000     C
    C   1.0     0.604046     0.722095     0.159138  Biso 1.000000     C
    C   1.0     0.054982     0.172845     0.203543  Biso 1.000000     C
    C   1.0     0.054985     0.672857     0.203542  Biso 1.000000     C
    C   1.0     0.554972     0.172844     0.203541  Biso 1.000000     C
    C   1.0     0.554979     0.672859     0.203547  Biso 1.000000     C
    C   1.0     0.065236     0.173494     0.279554  Biso 1.000000     C
    C   1.0     0.065240     0.673498     0.279554  Biso 1.000000     C
    C   1.0     0.565226     0.173493     0.279553  Biso 1.000000     C
    C   1.0     0.565235     0.673500     0.279559  Biso 1.000000     C
    C   1.0     0.123560     0.224796     0.310934  Biso 1.000000     C
    C   1.0     0.123558     0.724807     0.310937  Biso 1.000000     C
    C   1.0     0.623547     0.224799     0.310933  Biso 1.000000     C
    C   1.0     0.623550     0.724813     0.310942  Biso 1.000000     C
    C   1.0     0.352502     0.413488     0.302838  Biso 1.000000     C
    C   1.0     0.352496     0.913519     0.302859  Biso 1.000000     C
    C   1.0     0.852489     0.413492     0.302838  Biso 1.000000     C
    C   1.0     0.852482     0.913538     0.302867  Biso 1.000000     C
    C   1.0     0.299406     0.360373     0.267695  Biso 1.000000     C
    C   1.0     0.299403     0.860405     0.267710  Biso 1.000000     C
    C   1.0     0.799393     0.360379     0.267694  Biso 1.000000     C
    C   1.0     0.799392     0.860420     0.267717  Biso 1.000000     C
    C   1.0     0.231818     0.331250     0.302443  Biso 1.000000     C
    C   1.0     0.231815     0.831269     0.302454  Biso 1.000000     C
    C   1.0     0.731805     0.331255     0.302441  Biso 1.000000     C
    C   1.0     0.731806     0.831277     0.302461  Biso 1.000000     C
    C   1.0     0.222246     0.358199     0.372828  Biso 1.000000     C
    C   1.0     0.222246     0.858204     0.372846  Biso 1.000000     C
    C   1.0     0.722236     0.358200     0.372829  Biso 1.000000     C
    C   1.0     0.722239     0.858204     0.372857  Biso 1.000000     C
    C   1.0     0.278119     0.410442     0.405255  Biso 1.000000     C
    C   1.0     0.278118     0.910443     0.405281  Biso 1.000000     C
    C   1.0     0.778109     0.410441     0.405257  Biso 1.000000     C
    C   1.0     0.778108     0.910446     0.405292  Biso 1.000000     C
    C   1.0     0.092016     0.221584     0.077978  Biso 1.000000     C
    C   1.0     0.092016     0.721592     0.077972  Biso 1.000000     C
    C   1.0     0.592006     0.221580     0.077974  Biso 1.000000     C
    C   1.0     0.592010     0.721592     0.077976  Biso 1.000000     C
    C   1.0     0.013906     0.119889     0.327635  Biso 1.000000     C
    C   1.0     0.013920     0.619864     0.327624  Biso 1.000000     C
    C   1.0     0.513900     0.119881     0.327632  Biso 1.000000     C
    C   1.0     0.513915     0.619866     0.327628  Biso 1.000000     C
    C   1.0     0.172147     0.024781     0.232611  Biso 1.000000     C
    C   1.0     0.172170     0.524760     0.232561  Biso 1.000000     C
    C   1.0     0.672138     0.024780     0.232604  Biso 1.000000     C
    C   1.0     0.672164     0.524759     0.232549  Biso 1.000000     C
    C   1.0     0.162735     0.022005     0.309082  Biso 1.000000     C
    C   1.0     0.162729     0.521945     0.309031  Biso 1.000000     C
    C   1.0     0.662721     0.021992     0.309074  Biso 1.000000     C
    C   1.0     0.662719     0.521940     0.309019  Biso 1.000000     C
    C   1.0     0.103809     0.471534     0.340737  Biso 1.000000     C
    C   1.0     0.103804     0.971636     0.340833  Biso 1.000000     C
    C   1.0     0.603798     0.471526     0.340718  Biso 1.000000     C
    C   1.0     0.603797     0.971605     0.340814  Biso 1.000000     C
    C   1.0     0.054671     0.422247     0.296262  Biso 1.000000     C
    C   1.0     0.054634     0.922333     0.296399  Biso 1.000000     C
    C   1.0     0.554668     0.422236     0.296239  Biso 1.000000     C
    C   1.0     0.554631     0.922311     0.296370  Biso 1.000000     C
    C   1.0     0.064878     0.422645     0.220302  Biso 1.000000     C
    C   1.0     0.064827     0.922678     0.220434  Biso 1.000000     C
    C   1.0     0.564875     0.422643     0.220280  Biso 1.000000     C
    C   1.0     0.564829     0.922668     0.220407  Biso 1.000000     C
    C   1.0     0.123092     0.473951     0.188984  Biso 1.000000     C
    C   1.0     0.123036     0.973958     0.189073  Biso 1.000000     C
    C   1.0     0.623091     0.473951     0.188967  Biso 1.000000     C
    C   1.0     0.623034     0.973959     0.189056  Biso 1.000000     C
    C   1.0     0.351993     0.162709     0.197444  Biso 1.000000     C
    C   1.0     0.352011     0.662720     0.197444  Biso 1.000000     C
    C   1.0     0.851983     0.162717     0.197447  Biso 1.000000     C
    C   1.0     0.852003     0.662727     0.197442  Biso 1.000000     C
    C   1.0     0.298868     0.109779     0.232573  Biso 1.000000     C
    C   1.0     0.298885     0.609778     0.232559  Biso 1.000000     C
    C   1.0     0.798859     0.109782     0.232573  Biso 1.000000     C
    C   1.0     0.798876     0.609783     0.232554  Biso 1.000000     C
    C   1.0     0.231236     0.080580     0.197648  Biso 1.000000     C
    C   1.0     0.231257     0.580584     0.197625  Biso 1.000000     C
    C   1.0     0.731228     0.080584     0.197646  Biso 1.000000     C
    C   1.0     0.731249     0.580589     0.197618  Biso 1.000000     C
    C   1.0     0.221622     0.107340     0.127127  Biso 1.000000     C
    C   1.0     0.221648     0.607363     0.127110  Biso 1.000000     C
    C   1.0     0.721615     0.107347     0.127125  Biso 1.000000     C
    C   1.0     0.721643     0.607370     0.127103  Biso 1.000000     C
    C   1.0     0.277542     0.159384     0.094723  Biso 1.000000     C
    C   1.0     0.277568     0.659415     0.094719  Biso 1.000000     C
    C   1.0     0.777534     0.159394     0.094725  Biso 1.000000     C
    C   1.0     0.777563     0.659424     0.094715  Biso 1.000000     C
    C   1.0     0.091934     0.470782     0.421876  Biso 1.000000     C
    C   1.0     0.092043     0.970990     0.421988  Biso 1.000000     C
    C   1.0     0.591906     0.470763     0.421855  Biso 1.000000     C
    C   1.0     0.592011     0.970936     0.421966  Biso 1.000000     C
    C   1.0     0.013553     0.368631     0.172396  Biso 1.000000     C
    C   1.0     0.013490     0.868639     0.172554  Biso 1.000000     C
    C   1.0     0.513554     0.368628     0.172372  Biso 1.000000     C
    C   1.0     0.513494     0.868637     0.172518  Biso 1.000000     C
    C   1.0     0.327265     0.224570     0.732530  Biso 1.000000     C
    C   1.0     0.327266     0.724538     0.732526  Biso 1.000000     C
    C   1.0     0.827253     0.224567     0.732532  Biso 1.000000     C
    C   1.0     0.827256     0.724540     0.732523  Biso 1.000000     C
    C   1.0     0.336882     0.227473     0.809006  Biso 1.000000     C
    C   1.0     0.336883     0.727438     0.809003  Biso 1.000000     C
    C   1.0     0.836869     0.227470     0.809008  Biso 1.000000     C
    C   1.0     0.836873     0.727440     0.809001  Biso 1.000000     C
    C   1.0     0.395898     0.277889     0.840807  Biso 1.000000     C
    C   1.0     0.395892     0.777863     0.840808  Biso 1.000000     C
    C   1.0     0.895885     0.277886     0.840809  Biso 1.000000     C
    C   1.0     0.895885     0.777861     0.840806  Biso 1.000000     C
    C   1.0     0.444974     0.327113     0.796397  Biso 1.000000     C
    C   1.0     0.444966     0.827090     0.796400  Biso 1.000000     C
    C   1.0     0.944961     0.327111     0.796401  Biso 1.000000     C
    C   1.0     0.944956     0.827092     0.796398  Biso 1.000000     C
    C   1.0     0.434706     0.326478     0.720391  Biso 1.000000     C
    C   1.0     0.434695     0.826464     0.720394  Biso 1.000000     C
    C   1.0     0.934695     0.326475     0.720394  Biso 1.000000     C
    C   1.0     0.934689     0.826463     0.720391  Biso 1.000000     C
    C   1.0     0.376389     0.275167     0.689008  Biso 1.000000     C
    C   1.0     0.376386     0.775145     0.689008  Biso 1.000000     C
    C   1.0     0.876378     0.275165     0.689011  Biso 1.000000     C
    C   1.0     0.876376     0.775149     0.689006  Biso 1.000000     C
    C   1.0     0.147457     0.086443     0.697110  Biso 1.000000     C
    C   1.0     0.147471     0.586381     0.697081  Biso 1.000000     C
    C   1.0     0.647451     0.086430     0.697105  Biso 1.000000     C
    C   1.0     0.647464     0.586377     0.697074  Biso 1.000000     C
    C   1.0     0.200544     0.139571     0.732249  Biso 1.000000     C
    C   1.0     0.200548     0.639517     0.732227  Biso 1.000000     C
    C   1.0     0.700535     0.139561     0.732245  Biso 1.000000     C
    C   1.0     0.700540     0.639513     0.732223  Biso 1.000000     C
    C   1.0     0.268128     0.168711     0.697498  Biso 1.000000     C
    C   1.0     0.268132     0.668677     0.697484  Biso 1.000000     C
    C   1.0     0.768118     0.168708     0.697497  Biso 1.000000     C
    C   1.0     0.768123     0.668678     0.697481  Biso 1.000000     C
    C   1.0     0.277696     0.141771     0.627108  Biso 1.000000     C
    C   1.0     0.277702     0.641756     0.627087  Biso 1.000000     C
    C   1.0     0.777686     0.141774     0.627104  Biso 1.000000     C
    C   1.0     0.777694     0.641758     0.627082  Biso 1.000000     C
    C   1.0     0.221829     0.089520     0.594684  Biso 1.000000     C
    C   1.0     0.221842     0.589501     0.594654  Biso 1.000000     C
    C   1.0     0.721822     0.089521     0.594677  Biso 1.000000     C
    C   1.0     0.721835     0.589504     0.594647  Biso 1.000000     C
    C   1.0     0.407969     0.278362     0.921956  Biso 1.000000     C
    C   1.0     0.407960     0.778345     0.921960  Biso 1.000000     C
    C   1.0     0.907954     0.278364     0.921959  Biso 1.000000     C
    C   1.0     0.907951     0.778350     0.921960  Biso 1.000000     C
    C   1.0     0.486070     0.380055     0.672316  Biso 1.000000     C
    C   1.0     0.486049     0.880065     0.672328  Biso 1.000000     C
    C   1.0     0.986058     0.380055     0.672321  Biso 1.000000     C
    C   1.0     0.986036     0.880074     0.672327  Biso 1.000000     C
    N   1.0     0.157787     0.312876     0.870799  Biso 1.000000     N
    N   1.0     0.157767     0.812843     0.870784  Biso 1.000000     N
    N   1.0     0.657778     0.312867     0.870792  Biso 1.000000     N
    N   1.0     0.657758     0.812837     0.870786  Biso 1.000000     N
    N   1.0     0.342700     0.438156     0.370958  Biso 1.000000     N
    N   1.0     0.342696     0.938176     0.370986  Biso 1.000000     N
    N   1.0     0.842690     0.438157     0.370960  Biso 1.000000     N
    N   1.0     0.842683     0.938189     0.370995  Biso 1.000000     N
    N   1.0     0.342205     0.187093     0.129155  Biso 1.000000     N
    N   1.0     0.342229     0.687119     0.129159  Biso 1.000000     N
    N   1.0     0.842197     0.187102     0.129158  Biso 1.000000     N
    N   1.0     0.842223     0.687126     0.129157  Biso 1.000000     N
    N   1.0     0.157256     0.061781     0.628986  Biso 1.000000     N
    N   1.0     0.157274     0.561732     0.628952  Biso 1.000000     N
    N   1.0     0.657251     0.061772     0.628979  Biso 1.000000     N
    N   1.0     0.657268     0.561730     0.628945  Biso 1.000000     N
    O   1.0     0.474735     0.047978     0.553900  Biso 1.000000     O
    O   1.0     0.474686     0.547634     0.553759  Biso 1.000000     O
    O   1.0     0.974746     0.048110     0.553947  Biso 1.000000     O
    O   1.0     0.974678     0.547661     0.553772  Biso 1.000000     O
    O   1.0     0.353486     0.512294     0.534497  Biso 1.000000     O
    O   1.0     0.353564     0.000000     0.534537  Biso 1.000000     O
    O   1.0     0.853482     0.512292     0.534499  Biso 1.000000     O
    O   1.0     0.853587     0.000000     0.534548  Biso 1.000000     O
    O   1.0     0.041456     0.175047     0.798920  Biso 1.000000     O
    O   1.0     0.041474     0.675040     0.798635  Biso 1.000000     O
    O   1.0     0.541455     0.175043     0.798857  Biso 1.000000     O
    O   1.0     0.541472     0.675037     0.798618  Biso 1.000000     O
    O   1.0     0.472011     0.130979     0.896198  Biso 1.000000     O
    O   1.0     0.472099     0.630999     0.896039  Biso 1.000000     O
    O   1.0     0.971980     0.130976     0.896243  Biso 1.000000     O
    O   1.0     0.972083     0.630999     0.896051  Biso 1.000000     O
    O   1.0     0.025286     0.200643     0.053731  Biso 1.000000     O
    O   1.0     0.025285     0.700650     0.053723  Biso 1.000000     O
    O   1.0     0.525278     0.200632     0.053724  Biso 1.000000     O
    O   1.0     0.525279     0.700644     0.053726  Biso 1.000000     O
    O   1.0     0.146103     0.240357     0.034714  Biso 1.000000     O
    O   1.0     0.146103     0.740354     0.034709  Biso 1.000000     O
    O   1.0     0.646094     0.240357     0.034712  Biso 1.000000     O
    O   1.0     0.646096     0.740356     0.034712  Biso 1.000000     O
    O   1.0     0.459409     0.075253     0.299186  Biso 1.000000     O
    O   1.0     0.459435     0.575234     0.299167  Biso 1.000000     O
    O   1.0     0.959395     0.075263     0.299193  Biso 1.000000     O
    O   1.0     0.959424     0.575232     0.299164  Biso 1.000000     O
    O   1.0     0.027945     0.121546     0.396673  Biso 1.000000     O
    O   1.0     0.027961     0.621489     0.396663  Biso 1.000000     O
    O   1.0     0.527941     0.121531     0.396670  Biso 1.000000     O
    O   1.0     0.527955     0.621488     0.396667  Biso 1.000000     O
    O   1.0     0.025080     0.451310     0.445800  Biso 1.000000     O
    O   1.0     0.025197     0.951853     0.446023  Biso 1.000000     O
    O   1.0     0.525050     0.451260     0.445761  Biso 1.000000     O
    O   1.0     0.525165     0.951711     0.445978  Biso 1.000000     O
    O   1.0     0.146353    -0.012287     0.465431  Biso 1.000000     O
    O   1.0     0.146175     0.487737     0.465396  Biso 1.000000     O
    O   1.0     0.646307    -0.012277     0.465425  Biso 1.000000     O
    O   1.0     0.646137     0.487741     0.465388  Biso 1.000000     O
    O   1.0     0.458566     0.324921     0.200802  Biso 1.000000     O
    O   1.0     0.458513     0.824940     0.200957  Biso 1.000000     O
    O   1.0     0.958548     0.324927     0.200826  Biso 1.000000     O
    O   1.0     0.958497     0.824944     0.201000  Biso 1.000000     O
    O   1.0     0.028084     0.369005     0.103562  Biso 1.000000     O
    O   1.0     0.028026     0.869004     0.103713  Biso 1.000000     O
    O   1.0     0.528083     0.369002     0.103539  Biso 1.000000     O
    O   1.0     0.528031     0.869006     0.103679  Biso 1.000000     O
    O   1.0     0.474710     0.299264     0.946173  Biso 1.000000     O
    O   1.0     0.474702     0.799248     0.946182  Biso 1.000000     O
    O   1.0     0.974695     0.299271     0.946179  Biso 1.000000     O
    O   1.0     0.974693     0.799258     0.946182  Biso 1.000000     O
    O   1.0     0.353898     0.259620     0.965247  Biso 1.000000     O
    O   1.0     0.353889     0.759617     0.965251  Biso 1.000000     O
    O   1.0     0.853883     0.259621     0.965250  Biso 1.000000     O
    O   1.0     0.853880     0.759621     0.965251  Biso 1.000000     O
    O   1.0     0.040578     0.424672     0.700761  Biso 1.000000     O
    O   1.0     0.040540     0.924702     0.700782  Biso 1.000000     O
    O   1.0     0.540575     0.424672     0.700754  Biso 1.000000     O
    O   1.0     0.540540     0.924691     0.700780  Biso 1.000000     O
    O   1.0     0.472048     0.378378     0.603275  Biso 1.000000     O
    O   1.0     0.472030     0.878409     0.603287  Biso 1.000000     O
    O   1.0     0.972037     0.378381     0.603280  Biso 1.000000     O
    O   1.0     0.972016     0.878423     0.603286  Biso 1.000000     O
   Cd   1.0     0.064005     0.229858     0.926897  Biso 1.000000    Cd
   Cd   1.0     0.063986     0.729824     0.926859  Biso 1.000000    Cd
   Cd   1.0     0.563998     0.229847     0.926886  Biso 1.000000    Cd
   Cd   1.0     0.563978     0.729818     0.926859  Biso 1.000000    Cd
   Cd   1.0     0.436430     0.021753     0.426903  Biso 1.000000    Cd
   Cd   1.0     0.436484     0.521637     0.426846  Biso 1.000000    Cd
   Cd   1.0     0.936401     0.021797     0.426921  Biso 1.000000    Cd
   Cd   1.0     0.936474     0.521644     0.426851  Biso 1.000000    Cd
   Cd   1.0     0.435997     0.270070     0.073006  Biso 1.000000    Cd
   Cd   1.0     0.436018     0.770107     0.073032  Biso 1.000000    Cd
   Cd   1.0     0.935988     0.270080     0.073012  Biso 1.000000    Cd
   Cd   1.0     0.936012     0.770118     0.073036  Biso 1.000000    Cd
   Cd   1.0     0.063628     0.478023     0.572977  Biso 1.000000    Cd
   Cd   1.0     0.063547     0.978177     0.573056  Biso 1.000000    Cd
   Cd   1.0     0.563625     0.478011     0.572961  Biso 1.000000    Cd
   Cd   1.0     0.563560     0.978135     0.573041  Biso 1.000000    Cd
