#======================================================================

# CRYSTAL DATA

#----------------------------------------------------------------------

data_VESTA_phase_1


_pd_phase_name                         MOF
_cell_length_a                         13.85900
_cell_length_b                         13.79300
_cell_length_c                         21.99100
_cell_angle_alpha                      89.95900
_cell_angle_beta                       90.24500
_cell_angle_gamma                      90.18000
_symmetry_space_group_name_H-M         "P 1"
_symmetry_Int_Tables_number            1

loop_
_symmetry_equiv_pos_as_xyz
   "x, y, z"

loop_
   _atom_site_label
   _atom_site_occupancy
   _atom_site_fract_x
   _atom_site_fract_y
   _atom_site_fract_z
   _atom_site_adp_type
   _atom_site_B_iso_or_equiv
   _atom_site_type_symbol
    H   1.0     0.146709     0.210200     0.948489  Biso 1.000000     H
    H   1.0     0.646698     0.210199     0.948489  Biso 1.000000     H
    H   1.0     0.143636     0.106696     0.998321  Biso 1.000000     H
    H   1.0     0.643624     0.106695     0.998321  Biso 1.000000     H
    H   1.0     0.375978     0.458090     0.218008  Biso 1.000000     H
    H   1.0     0.875967     0.458093     0.218008  Biso 1.000000     H
    H   1.0     0.378062     0.354884     0.167990  Biso 1.000000     H
    H   1.0     0.878050     0.354885     0.167992  Biso 1.000000     H
    H   1.0     0.052810     0.106754     0.264706  Biso 1.000000     H
    H   1.0     0.552793     0.106753     0.264705  Biso 1.000000     H
    H   1.0     0.043716     0.214411     0.356296  Biso 1.000000     H
    H   1.0     0.543696     0.214410     0.356295  Biso 1.000000     H
    H   1.0     0.148056     0.447477     0.241620  Biso 1.000000     H
    H   1.0     0.648041     0.447475     0.241619  Biso 1.000000     H
    H   1.0     0.155854     0.330087     0.157032  Biso 1.000000     H
    H   1.0     0.655843     0.330083     0.157033  Biso 1.000000     H
    H   1.0     0.028260     0.527825     0.310714  Biso 1.000000     H
    H   1.0     0.528242     0.527824     0.310713  Biso 1.000000     H
    H   1.0     0.032045     0.636859     0.401952  Biso 1.000000     H
    H   1.0     0.532029     0.636858     0.401952  Biso 1.000000     H
    H   1.0     0.161533     0.426153     0.508358  Biso 1.000000     H
    H   1.0     0.661519     0.426152     0.508356  Biso 1.000000     H
    H   1.0     0.158759     0.306936     0.424150  Biso 1.000000     H
    H   1.0     0.658743     0.306935     0.424148  Biso 1.000000     H
    H   1.0     0.353228     0.792332     0.448082  Biso 1.000000     H
    H   1.0     0.853216     0.792331     0.448082  Biso 1.000000     H
    H   1.0     0.357191     0.895903     0.497726  Biso 1.000000     H
    H   1.0     0.857178     0.895902     0.497726  Biso 1.000000     H
    H   1.0     0.123681     0.541690     0.717479  Biso 1.000000     H
    H   1.0     0.623670     0.541691     0.717478  Biso 1.000000     H
    H   1.0     0.120038     0.645891     0.668215  Biso 1.000000     H
    H   1.0     0.620026     0.645892     0.668214  Biso 1.000000     H
    H   1.0     0.445369     0.895852     0.764476  Biso 1.000000     H
    H   1.0     0.945351     0.895852     0.764477  Biso 1.000000     H
    H   1.0     0.454413     0.788134     0.856165  Biso 1.000000     H
    H   1.0     0.954392     0.788134     0.856167  Biso 1.000000     H
    H   1.0     0.353354     0.554377     0.740568  Biso 1.000000     H
    H   1.0     0.853338     0.554377     0.740567  Biso 1.000000     H
    H   1.0     0.345500     0.671857     0.655824  Biso 1.000000     H
    H   1.0     0.845487     0.671857     0.655823  Biso 1.000000     H
    H   1.0     0.471137     0.474451     0.810974  Biso 1.000000     H
    H   1.0     0.971116     0.474450     0.810974  Biso 1.000000     H
    H   1.0     0.467592     0.365869     0.902524  Biso 1.000000     H
    H   1.0     0.967573     0.365868     0.902524  Biso 1.000000     H
    H   1.0     0.337587     0.576759     0.007632  Biso 1.000000     H
    H   1.0     0.837573     0.576759     0.007633  Biso 1.000000     H
    H   1.0     0.339980     0.695586     0.923125  Biso 1.000000     H
    H   1.0     0.839963     0.695585     0.923126  Biso 1.000000     H
    H   1.0     0.101648     0.710742     0.948367  Biso 1.000000     H
    H   1.0     0.601636     0.710742     0.948368  Biso 1.000000     H
    H   1.0     0.105320     0.606435     0.997524  Biso 1.000000     H
    H   1.0     0.605307     0.606435     0.997524  Biso 1.000000     H
    H   1.0     0.372953    -0.040997     0.217294  Biso 1.000000     H
    H   1.0     0.872945    -0.040998     0.217296  Biso 1.000000     H
    H   1.0     0.369661     0.856038     0.167151  Biso 1.000000     H
    H   1.0     0.869652     0.856037     0.167153  Biso 1.000000     H
    H   1.0     0.197091     0.606468     0.265133  Biso 1.000000     H
    H   1.0     0.697071     0.606467     0.265134  Biso 1.000000     H
    H   1.0     0.205322     0.714504     0.356643  Biso 1.000000     H
    H   1.0     0.705301     0.714503     0.356644  Biso 1.000000     H
    H   1.0     0.102471     0.946606     0.240607  Biso 1.000000     H
    H   1.0     0.602452     0.946605     0.240607  Biso 1.000000     H
    H   1.0     0.095108     0.828798     0.156170  Biso 1.000000     H
    H   1.0     0.595091     0.828797     0.156170  Biso 1.000000     H
    H   1.0     0.221748     0.027558     0.310990  Biso 1.000000     H
    H   1.0     0.721729     0.027558     0.310989  Biso 1.000000     H
    H   1.0     0.217528     0.136678     0.402114  Biso 1.000000     H
    H   1.0     0.717511     0.136678     0.402113  Biso 1.000000     H
    H   1.0     0.085928     0.926060     0.507376  Biso 1.000000     H
    H   1.0     0.585916     0.926061     0.507377  Biso 1.000000     H
    H   1.0     0.088842     0.806698     0.423261  Biso 1.000000     H
    H   1.0     0.588826     0.806699     0.423262  Biso 1.000000     H
    H   1.0     0.398033     0.291480     0.448400  Biso 1.000000     H
    H   1.0     0.898022     0.291480     0.448399  Biso 1.000000     H
    H   1.0     0.394271     0.395665     0.497504  Biso 1.000000     H
    H   1.0     0.894260     0.395665     0.497504  Biso 1.000000     H
    H   1.0     0.126386     0.000000     0.717182  Biso 1.000000     H
    H   1.0     0.626374     0.000000     0.717182  Biso 1.000000     H
    H   1.0     0.129186     0.145665     0.667446  Biso 1.000000     H
    H   1.0     0.629174     0.145666     0.667446  Biso 1.000000     H
    H   1.0     0.300611     0.394866     0.763655  Biso 1.000000     H
    H   1.0     0.800592     0.394864     0.763654  Biso 1.000000     H
    H   1.0     0.293009     0.287256     0.855464  Biso 1.000000     H
    H   1.0     0.792987     0.287255     0.855463  Biso 1.000000     H
    H   1.0     0.397595     0.055239     0.740761  Biso 1.000000     H
    H   1.0     0.897581     0.055239     0.740763  Biso 1.000000     H
    H   1.0     0.404247     0.172679     0.656002  Biso 1.000000     H
    H   1.0     0.904236     0.172678     0.656004  Biso 1.000000     H
    H   1.0     0.278559     0.973851     0.810217  Biso 1.000000     H
    H   1.0     0.778540     0.973850     0.810219  Biso 1.000000     H
    H   1.0     0.282715     0.865043     0.901671  Biso 1.000000     H
    H   1.0     0.782697     0.865044     0.901673  Biso 1.000000     H
    H   1.0     0.411594     0.077119     0.007684  Biso 1.000000     H
    H   1.0     0.911580     0.077119     0.007685  Biso 1.000000     H
    H   1.0     0.408546     0.196160     0.923281  Biso 1.000000     H
    H   1.0     0.908530     0.196160     0.923282  Biso 1.000000     H
    C   1.0     0.228149     0.225804     0.032326  Biso 1.000000     C
    C   1.0     0.728138     0.225802     0.032327  Biso 1.000000     C
    C   1.0     0.142125     0.186420     0.995836  Biso 1.000000     C
    C   1.0     0.642113     0.186418     0.995837  Biso 1.000000     C
    C   1.0     0.049303     0.222602     0.024886  Biso 1.000000     C
    C   1.0     0.549292     0.222601     0.024886  Biso 1.000000     C
    C   1.0     0.291905     0.473165     0.135088  Biso 1.000000     C
    C   1.0     0.791893     0.473165     0.135089  Biso 1.000000     C
    C   1.0     0.379190     0.434610     0.170578  Biso 1.000000     C
    C   1.0     0.879179     0.434612     0.170579  Biso 1.000000     C
    C   1.0     0.470992     0.471917     0.140612  Biso 1.000000     C
    C   1.0     0.970981     0.471918     0.140612  Biso 1.000000     C
    C   1.0     0.075001     0.182472     0.262583  Biso 1.000000     C
    C   1.0     0.574984     0.182471     0.262582  Biso 1.000000     C
    C   1.0     0.069442     0.242847     0.312996  Biso 1.000000     C
    C   1.0     0.569424     0.242846     0.312995  Biso 1.000000     C
    C   1.0     0.096075     0.340686     0.307081  Biso 1.000000     C
    C   1.0     0.596057     0.340685     0.307080  Biso 1.000000     C
    C   1.0     0.126365     0.372871     0.249839  Biso 1.000000     C
    C   1.0     0.626350     0.372869     0.249839  Biso 1.000000     C
    C   1.0     0.131421     0.307594     0.201902  Biso 1.000000     C
    C   1.0     0.631407     0.307592     0.201902  Biso 1.000000     C
    C   1.0     0.094420     0.407808     0.359437  Biso 1.000000     C
    C   1.0     0.594403     0.407807     0.359436  Biso 1.000000     C
    C   1.0     0.058679     0.502533     0.353694  Biso 1.000000     C
    C   1.0     0.558662     0.502531     0.353693  Biso 1.000000     C
    C   1.0     0.061336     0.563750     0.403827  Biso 1.000000     C
    C   1.0     0.561320     0.563749     0.403826  Biso 1.000000     C
    C   1.0     0.132363     0.445483     0.463896  Biso 1.000000     C
    C   1.0     0.632349     0.445481     0.463895  Biso 1.000000     C
    C   1.0     0.130479     0.379307     0.416250  Biso 1.000000     C
    C   1.0     0.630463     0.379305     0.416249  Biso 1.000000     C
    C   1.0     0.270763     0.777889     0.531196  Biso 1.000000     C
    C   1.0     0.770751     0.777889     0.531196  Biso 1.000000     C
    C   1.0     0.357614     0.816153     0.495430  Biso 1.000000     C
    C   1.0     0.857602     0.816153     0.495430  Biso 1.000000     C
    C   1.0     0.449737     0.778943     0.525343  Biso 1.000000     C
    C   1.0     0.949725     0.778943     0.525343  Biso 1.000000     C
    C   1.0     0.207463     0.529253     0.634835  Biso 1.000000     C
    C   1.0     0.707451     0.529253     0.634835  Biso 1.000000     C
    C   1.0     0.120014     0.566116     0.670212  Biso 1.000000     C
    C   1.0     0.620002     0.566117     0.670211  Biso 1.000000     C
    C   1.0     0.028405     0.528356     0.639610  Biso 1.000000     C
    C   1.0     0.528393     0.528356     0.639610  Biso 1.000000     C
    C   1.0     0.423779     0.819976     0.762141  Biso 1.000000     C
    C   1.0     0.923762     0.819975     0.762142  Biso 1.000000     C
    C   1.0     0.429294     0.759599     0.812639  Biso 1.000000     C
    C   1.0     0.929275     0.759599     0.812640  Biso 1.000000     C
    C   1.0     0.403393     0.661599     0.806509  Biso 1.000000     C
    C   1.0     0.903375     0.661598     0.806510  Biso 1.000000     C
    C   1.0     0.374217     0.629193     0.748948  Biso 1.000000     C
    C   1.0     0.874201     0.629193     0.748947  Biso 1.000000     C
    C   1.0     0.369152     0.694537     0.700940  Biso 1.000000     C
    C   1.0     0.869137     0.694536     0.700939  Biso 1.000000     C
    C   1.0     0.404771     0.594617     0.859000  Biso 1.000000     C
    C   1.0     0.904752     0.594616     0.859000  Biso 1.000000     C
    C   1.0     0.440633     0.499911     0.853701  Biso 1.000000     C
    C   1.0     0.940614     0.499910     0.853701  Biso 1.000000     C
    C   1.0     0.438115     0.438914     0.903968  Biso 1.000000     C
    C   1.0     0.938096     0.438913     0.903967  Biso 1.000000     C
    C   1.0     0.366772     0.557368     0.963346  Biso 1.000000     C
    C   1.0     0.866756     0.557367     0.963347  Biso 1.000000     C
    C   1.0     0.368495     0.623284     0.915519  Biso 1.000000     C
    C   1.0     0.868479     0.623283     0.915520  Biso 1.000000     C
    C   1.0     0.020701     0.724371     0.032107  Biso 1.000000     C
    C   1.0     0.520687     0.724370     0.032106  Biso 1.000000     C
    C   1.0     0.106580     0.686201     0.995566  Biso 1.000000     C
    C   1.0     0.606567     0.686201     0.995566  Biso 1.000000     C
    C   1.0     0.199603     0.722492     0.025033  Biso 1.000000     C
    C   1.0     0.699590     0.722492     0.025034  Biso 1.000000     C
    C   1.0     0.457807     0.973674     0.135066  Biso 1.000000     C
    C   1.0     0.957796     0.973675     0.135068  Biso 1.000000     C
    C   1.0     0.369779     0.935769     0.169800  Biso 1.000000     C
    C   1.0     0.869770     0.935768     0.169803  Biso 1.000000     C
    C   1.0     0.278641    -0.026027     0.139111  Biso 1.000000     C
    C   1.0     0.778630    -0.026028     0.139115  Biso 1.000000     C
    C   1.0     0.174939     0.682045     0.262657  Biso 1.000000     C
    C   1.0     0.674920     0.682044     0.262658  Biso 1.000000     C
    C   1.0     0.180040     0.742614     0.313054  Biso 1.000000     C
    C   1.0     0.680020     0.742613     0.313055  Biso 1.000000     C
    C   1.0     0.153465     0.840265     0.306754  Biso 1.000000     C
    C   1.0     0.653446     0.840264     0.306755  Biso 1.000000     C
    C   1.0     0.123953     0.872113     0.249145  Biso 1.000000     C
    C   1.0     0.623934     0.872112     0.249145  Biso 1.000000     C
    C   1.0     0.119218     0.806578     0.201272  Biso 1.000000     C
    C   1.0     0.619200     0.806577     0.201272  Biso 1.000000     C
    C   1.0     0.154491     0.907512     0.359083  Biso 1.000000     C
    C   1.0     0.654472     0.907512     0.359083  Biso 1.000000     C
    C   1.0     0.190685     0.002267     0.353664  Biso 1.000000     C
    C   1.0     0.690667     0.002267     0.353663  Biso 1.000000     C
    C   1.0     0.187783     0.063571     0.403723  Biso 1.000000     C
    C   1.0     0.687766     0.063571     0.403723  Biso 1.000000     C
    C   1.0     0.115522     0.945311     0.463144  Biso 1.000000     C
    C   1.0     0.615508     0.945312     0.463144  Biso 1.000000     C
    C   1.0     0.117538     0.879091     0.415543  Biso 1.000000     C
    C   1.0     0.617522     0.879092     0.415544  Biso 1.000000     C
    C   1.0     0.478058     0.277440     0.532885  Biso 1.000000     C
    C   1.0     0.978046     0.277440     0.532885  Biso 1.000000     C
    C   1.0     0.392600     0.315903     0.495549  Biso 1.000000     C
    C   1.0     0.892589     0.315903     0.495549  Biso 1.000000     C
    C   1.0     0.299129     0.279876     0.524053  Biso 1.000000     C
    C   1.0     0.799116     0.279876     0.524053  Biso 1.000000     C
    C   1.0     0.041939     0.027763     0.634390  Biso 1.000000     C
    C   1.0     0.541927     0.027763     0.634390  Biso 1.000000     C
    C   1.0     0.129656     0.065911     0.669803  Biso 1.000000     C
    C   1.0     0.629644     0.065912     0.669803  Biso 1.000000     C
    C   1.0     0.221056     0.000000     0.639634  Biso 1.000000     C
    C   1.0     0.721044     0.000000     0.639634  Biso 1.000000     C
    C   1.0     0.323225     0.319412     0.761570  Biso 1.000000     C
    C   1.0     0.823207     0.319410     0.761569  Biso 1.000000     C
    C   1.0     0.318493     0.259077     0.812106  Biso 1.000000     C
    C   1.0     0.818473     0.259076     0.812106  Biso 1.000000     C
    C   1.0     0.345588     0.161552     0.806231  Biso 1.000000     C
    C   1.0     0.845571     0.161551     0.806232  Biso 1.000000     C
    C   1.0     0.375583     0.129628     0.748929  Biso 1.000000     C
    C   1.0     0.875568     0.129627     0.748930  Biso 1.000000     C
    C   1.0     0.379882     0.194929     0.700886  Biso 1.000000     C
    C   1.0     0.879869     0.194928     0.700887  Biso 1.000000     C
    C   1.0     0.344452     0.094533     0.858704  Biso 1.000000     C
    C   1.0     0.844434     0.094533     0.858705  Biso 1.000000     C
    C   1.0     0.308988     0.999503     0.853128  Biso 1.000000     C
    C   1.0     0.808970     0.999503     0.853130  Biso 1.000000     C
    C   1.0     0.311853     0.938407     0.903349  Biso 1.000000     C
    C   1.0     0.811836     0.938407     0.903351  Biso 1.000000     C
    C   1.0     0.382570     0.057489     0.963216  Biso 1.000000     C
    C   1.0     0.882554     0.057490     0.963217  Biso 1.000000     C
    C   1.0     0.380465     0.123531     0.915457  Biso 1.000000     C
    C   1.0     0.880449     0.123531     0.915458  Biso 1.000000     C
    N   1.0     0.106901     0.213491     0.208015  Biso 1.000000     N
    N   1.0     0.606887     0.213488     0.208015  Biso 1.000000     N
    N   1.0     0.098971     0.536723     0.457966  Biso 1.000000     N
    N   1.0     0.598956     0.536721     0.457965  Biso 1.000000     N
    N   1.0     0.392654     0.788859     0.707294  Biso 1.000000     N
    N   1.0     0.892639     0.788859     0.707295  Biso 1.000000     N
    N   1.0     0.400478     0.466210     0.957835  Biso 1.000000     N
    N   1.0     0.900462     0.466210     0.957835  Biso 1.000000     N
    N   1.0     0.143487     0.712594     0.207758  Biso 1.000000     N
    N   1.0     0.643469     0.712593     0.207759  Biso 1.000000     N
    N   1.0     0.149480     0.036556     0.457534  Biso 1.000000     N
    N   1.0     0.649466     0.036556     0.457533  Biso 1.000000     N
    N   1.0     0.354787     0.288725     0.706928  Biso 1.000000     N
    N   1.0     0.854772     0.288723     0.706929  Biso 1.000000     N
    N   1.0     0.349462     0.965963     0.957405  Biso 1.000000     N
    N   1.0     0.849447     0.965963     0.957406  Biso 1.000000     N
    O   1.0     0.234146     0.204479     0.088288  Biso 1.000000     O
    O   1.0     0.734135     0.204476     0.088289  Biso 1.000000     O
    O   1.0     0.287259     0.278708     0.000000  Biso 1.000000     O
    O   1.0     0.787247     0.278708     0.000000  Biso 1.000000     O
    O   1.0     0.026740     0.191580     0.077424  Biso 1.000000     O
    O   1.0     0.526730     0.191579     0.077424  Biso 1.000000     O
    O   1.0     0.499765     0.283798     0.994827  Biso 1.000000     O
    O   1.0     0.999753     0.283799     0.994827  Biso 1.000000     O
    O   1.0     0.283677     0.450993     0.079367  Biso 1.000000     O
    O   1.0     0.783665     0.450992     0.079368  Biso 1.000000     O
    O   1.0     0.233196     0.525787     0.164688  Biso 1.000000     O
    O   1.0     0.733184     0.525787     0.164688  Biso 1.000000     O
    O   1.0     0.491846     0.442074     0.087602  Biso 1.000000     O
    O   1.0     0.991834     0.442074     0.087602  Biso 1.000000     O
    O   1.0     0.020684     0.533487     0.170579  Biso 1.000000     O
    O   1.0     0.520671     0.533486     0.170579  Biso 1.000000     O
    O   1.0     0.263603     0.800377     0.586885  Biso 1.000000     O
    O   1.0     0.763590     0.800377     0.586885  Biso 1.000000     O
    O   1.0     0.212143     0.724412     0.501535  Biso 1.000000     O
    O   1.0     0.712130     0.724411     0.501535  Biso 1.000000     O
    O   1.0     0.471450     0.808744     0.578362  Biso 1.000000     O
    O   1.0     0.971437     0.808744     0.578363  Biso 1.000000     O
    O   1.0    -0.000442     0.718104     0.495540  Biso 1.000000     O
    O   1.0     0.499545     0.718103     0.495540  Biso 1.000000     O
    O   1.0     0.216256     0.553568     0.579490  Biso 1.000000     O
    O   1.0     0.716244     0.553567     0.579489  Biso 1.000000     O
    O   1.0     0.266027     0.475449     0.664036  Biso 1.000000     O
    O   1.0     0.766014     0.475448     0.664035  Biso 1.000000     O
    O   1.0     0.007953     0.558144     0.586418  Biso 1.000000     O
    O   1.0     0.507940     0.558144     0.586417  Biso 1.000000     O
    O   1.0     0.478692     0.466883     0.669377  Biso 1.000000     O
    O   1.0     0.978679     0.466882     0.669377  Biso 1.000000     O
    O   1.0     0.013992     0.700711     0.087667  Biso 1.000000     O
    O   1.0     0.513975     0.700708     0.087666  Biso 1.000000     O
    O   1.0     0.462433     0.778713     0.000000  Biso 1.000000     O
    O   1.0     0.962421     0.778712     0.000000  Biso 1.000000     O
    O   1.0     0.221652     0.691763     0.077784  Biso 1.000000     O
    O   1.0     0.721638     0.691762     0.077785  Biso 1.000000     O
    O   1.0     0.249780     0.783350     0.995069  Biso 1.000000     O
    O   1.0     0.749767     0.783351     0.995070  Biso 1.000000     O
    O   1.0     0.466524     0.950495     0.079554  Biso 1.000000     O
    O   1.0     0.966512     0.950495     0.079555  Biso 1.000000     O
    O   1.0     0.016517     0.026865     0.164789  Biso 1.000000     O
    O   1.0     0.516505     0.026863     0.164789  Biso 1.000000     O
    O   1.0     0.258345     0.945618     0.085579  Biso 1.000000     O
    O   1.0     0.758334     0.945618     0.085582  Biso 1.000000     O
    O   1.0     0.229110     0.034791     0.169263  Biso 1.000000     O
    O   1.0     0.729098     0.034787     0.169269  Biso 1.000000     O
    O   1.0     0.483125     0.299335     0.588774  Biso 1.000000     O
    O   1.0     0.983113     0.299335     0.588774  Biso 1.000000     O
    O   1.0     0.037677     0.224801     0.503995  Biso 1.000000     O
    O   1.0     0.537665     0.224801     0.503995  Biso 1.000000     O
    O   1.0     0.275228     0.312181     0.576012  Biso 1.000000     O
    O   1.0     0.775215     0.312181     0.576012  Biso 1.000000     O
    O   1.0     0.250290     0.217489     0.494335  Biso 1.000000     O
    O   1.0     0.750277     0.217489     0.494334  Biso 1.000000     O
    O   1.0     0.033611     0.050118     0.578671  Biso 1.000000     O
    O   1.0     0.533599     0.050118     0.578671  Biso 1.000000     O
    O   1.0     0.483002     0.975074     0.663979  Biso 1.000000     O
    O   1.0     0.982989     0.975074     0.663979  Biso 1.000000     O
    O   1.0     0.241791     0.058592     0.586576  Biso 1.000000     O
    O   1.0     0.741779     0.058592     0.586575  Biso 1.000000     O
    O   1.0     0.270474     0.967011     0.669474  Biso 1.000000     O
    O   1.0     0.770462     0.967011     0.669474  Biso 1.000000     O
   Zn   1.0     0.123890     0.120512     0.133161  Biso 1.000000    Zn
   Zn   1.0     0.623880     0.120510     0.133162  Biso 1.000000    Zn
   Zn   1.0     0.392041     0.370786     0.032553  Biso 1.000000    Zn
   Zn   1.0     0.892029     0.370786     0.032554  Biso 1.000000    Zn
   Zn   1.0     0.375235     0.882707     0.632294  Biso 1.000000    Zn
   Zn   1.0     0.875223     0.882707     0.632294  Biso 1.000000    Zn
   Zn   1.0     0.107876     0.632678     0.532949  Biso 1.000000    Zn
   Zn   1.0     0.607864     0.632677     0.532948  Biso 1.000000    Zn
   Zn   1.0     0.125611     0.618323     0.133125  Biso 1.000000    Zn
   Zn   1.0     0.625598     0.618321     0.133125  Biso 1.000000    Zn
   Zn   1.0     0.357956     0.870897     0.032324  Biso 1.000000    Zn
   Zn   1.0     0.857944     0.870898     0.032325  Biso 1.000000    Zn
   Zn   1.0     0.371651     0.383047     0.632218  Biso 1.000000    Zn
   Zn   1.0     0.871639     0.383047     0.632218  Biso 1.000000    Zn
   Zn   1.0     0.141929     0.131938     0.532839  Biso 1.000000    Zn
   Zn   1.0     0.641918     0.131938     0.532839  Biso 1.000000    Zn
