#======================================================================

# CRYSTAL DATA

#----------------------------------------------------------------------

data_VESTA_phase_1


_pd_phase_name                         MOF
_cell_length_a                         13.53500
_cell_length_b                         13.52900
_cell_length_c                         27.87300
_cell_angle_alpha                      90.02000
_cell_angle_beta                       90.32900
_cell_angle_gamma                      96.05000
_symmetry_space_group_name_H-M         "P 1"
_symmetry_Int_Tables_number            1

loop_
_symmetry_equiv_pos_as_xyz
   "x, y, z"

loop_
   _atom_site_label
   _atom_site_occupancy
   _atom_site_fract_x
   _atom_site_fract_y
   _atom_site_fract_z
   _atom_site_adp_type
   _atom_site_B_iso_or_equiv
   _atom_site_type_symbol
    H   1.0     0.087885     0.319074     0.854553  Biso 1.000000     H
    H   1.0     0.087887     0.819061     0.854555  Biso 1.000000     H
    H   1.0     0.587870     0.319072     0.854554  Biso 1.000000     H
    H   1.0     0.587872     0.819060     0.854554  Biso 1.000000     H
    H   1.0    -0.008969     0.316948     0.809767  Biso 1.000000     H
    H   1.0    -0.008968     0.816932     0.809768  Biso 1.000000     H
    H   1.0     0.491018     0.316951     0.809767  Biso 1.000000     H
    H   1.0     0.491022     0.816933     0.809765  Biso 1.000000     H
    H   1.0     0.333421     0.289396     0.616291  Biso 1.000000     H
    H   1.0     0.333440     0.789452     0.616295  Biso 1.000000     H
    H   1.0     0.833411     0.289411     0.616293  Biso 1.000000     H
    H   1.0     0.833421     0.789428     0.616292  Biso 1.000000     H
    H   1.0     0.205418     0.266838     0.680164  Biso 1.000000     H
    H   1.0     0.205450     0.766885     0.680173  Biso 1.000000     H
    H   1.0     0.705410     0.266850     0.680167  Biso 1.000000     H
    H   1.0     0.705429     0.766867     0.680168  Biso 1.000000     H
    H   1.0     0.036376     0.468904     0.617360  Biso 1.000000     H
    H   1.0     0.036337     0.968874     0.617355  Biso 1.000000     H
    H   1.0     0.536354     0.468903     0.617362  Biso 1.000000     H
    H   1.0     0.536338     0.968880     0.617354  Biso 1.000000     H
    H   1.0     0.155951     0.498896     0.548898  Biso 1.000000     H
    H   1.0     0.155899     0.998874     0.548888  Biso 1.000000     H
    H   1.0     0.655926     0.498898     0.548898  Biso 1.000000     H
    H   1.0     0.655902     0.998872     0.548887  Biso 1.000000     H
    H   1.0     0.323365     0.479314     0.517466  Biso 1.000000     H
    H   1.0     0.323330     0.979333     0.517458  Biso 1.000000     H
    H   1.0     0.823353     0.479327     0.517470  Biso 1.000000     H
    H   1.0     0.823322     0.979311     0.517453  Biso 1.000000     H
    H   1.0     0.404968     0.415433     0.553078  Biso 1.000000     H
    H   1.0     0.404946     0.915461     0.553066  Biso 1.000000     H
    H   1.0     0.904948     0.415427     0.553076  Biso 1.000000     H
    H   1.0     0.904940     0.915456     0.553068  Biso 1.000000     H
    H   1.0     0.251117     0.321082     0.480598  Biso 1.000000     H
    H   1.0     0.251089     0.821097     0.480594  Biso 1.000000     H
    H   1.0     0.751086     0.321116     0.480593  Biso 1.000000     H
    H   1.0     0.751103     0.821067     0.480593  Biso 1.000000     H
    H   1.0     0.318497     0.086555     0.145502  Biso 1.000000     H
    H   1.0     0.318498     0.586555     0.145502  Biso 1.000000     H
    H   1.0     0.818489     0.086556     0.145503  Biso 1.000000     H
    H   1.0     0.818488     0.586555     0.145502  Biso 1.000000     H
    H   1.0     0.316916    -0.009827     0.190223  Biso 1.000000     H
    H   1.0     0.316915     0.490167     0.190220  Biso 1.000000     H
    H   1.0     0.816907    -0.009826     0.190224  Biso 1.000000     H
    H   1.0     0.816907     0.490167     0.190221  Biso 1.000000     H
    H   1.0     0.290790     0.335361     0.383690  Biso 1.000000     H
    H   1.0     0.290760     0.835355     0.383683  Biso 1.000000     H
    H   1.0     0.790782     0.335370     0.383684  Biso 1.000000     H
    H   1.0     0.790798     0.835363     0.383687  Biso 1.000000     H
    H   1.0     0.268697     0.207223     0.319424  Biso 1.000000     H
    H   1.0     0.268679     0.707209     0.319420  Biso 1.000000     H
    H   1.0     0.768698     0.207232     0.319417  Biso 1.000000     H
    H   1.0     0.768707     0.707229     0.319419  Biso 1.000000     H
    H   1.0     0.468371     0.036947     0.383392  Biso 1.000000     H
    H   1.0     0.468365     0.536957     0.383396  Biso 1.000000     H
    H   1.0     0.968327     0.036931     0.383404  Biso 1.000000     H
    H   1.0     0.968349     0.536928     0.383397  Biso 1.000000     H
    H   1.0     0.497859     0.156713     0.452260  Biso 1.000000     H
    H   1.0     0.497841     0.656732     0.452261  Biso 1.000000     H
    H   1.0     0.997804     0.156694     0.452273  Biso 1.000000     H
    H   1.0     0.997834     0.656690     0.452266  Biso 1.000000     H
    H   1.0     0.478715     0.324802     0.483812  Biso 1.000000     H
    H   1.0     0.478688     0.824825     0.483806  Biso 1.000000     H
    H   1.0     0.978679     0.324790     0.483818  Biso 1.000000     H
    H   1.0     0.978699     0.824783     0.483819  Biso 1.000000     H
    H   1.0     0.414830     0.406382     0.448229  Biso 1.000000     H
    H   1.0     0.414796     0.906394     0.448219  Biso 1.000000     H
    H   1.0     0.914815     0.406380     0.448230  Biso 1.000000     H
    H   1.0     0.914828     0.906371     0.448232  Biso 1.000000     H
    H   1.0     0.320438     0.251669     0.519565  Biso 1.000000     H
    H   1.0     0.320412     0.751689     0.519561  Biso 1.000000     H
    H   1.0     0.820380     0.251678     0.519560  Biso 1.000000     H
    H   1.0     0.820419     0.751669     0.519569  Biso 1.000000     H
    H   1.0     0.069463     0.336593     0.354577  Biso 1.000000     H
    H   1.0     0.069462     0.836590     0.354577  Biso 1.000000     H
    H   1.0     0.569456     0.336598     0.354578  Biso 1.000000     H
    H   1.0     0.569455     0.836591     0.354578  Biso 1.000000     H
    H   1.0     0.067305     0.240193     0.309780  Biso 1.000000     H
    H   1.0     0.067304     0.740186     0.309782  Biso 1.000000     H
    H   1.0     0.567298     0.240197     0.309781  Biso 1.000000     H
    H   1.0     0.567297     0.740186     0.309784  Biso 1.000000     H
    H   1.0     0.039590     0.085127     0.116115  Biso 1.000000     H
    H   1.0     0.039599     0.585114     0.116118  Biso 1.000000     H
    H   1.0     0.539609     0.085140     0.116122  Biso 1.000000     H
    H   1.0     0.539595     0.585122     0.116122  Biso 1.000000     H
    H   1.0     0.016063     0.455885     0.179675  Biso 1.000000     H
    H   1.0     0.016059     0.955879     0.179674  Biso 1.000000     H
    H   1.0     0.516063     0.455896     0.179681  Biso 1.000000     H
    H   1.0     0.516076     0.955896     0.179683  Biso 1.000000     H
    H   1.0     0.219530     0.288277     0.118019  Biso 1.000000     H
    H   1.0     0.219530     0.788273     0.118019  Biso 1.000000     H
    H   1.0     0.719498     0.288266     0.118013  Biso 1.000000     H
    H   1.0     0.719501     0.788254     0.118017  Biso 1.000000     H
    H   1.0     0.250604     0.409159     0.049913  Biso 1.000000     H
    H   1.0     0.250601     0.909153     0.049912  Biso 1.000000     H
    H   1.0     0.750568     0.409145     0.049905  Biso 1.000000     H
    H   1.0     0.750574     0.909128     0.049907  Biso 1.000000     H
    H   1.0     0.231409     0.077105     0.018546  Biso 1.000000     H
    H   1.0     0.231420     0.577096     0.018550  Biso 1.000000     H
    H   1.0     0.731404     0.077088     0.018544  Biso 1.000000     H
    H   1.0     0.731399     0.577089     0.018548  Biso 1.000000     H
    H   1.0     0.166311     0.158026     0.053603  Biso 1.000000     H
    H   1.0     0.166313     0.658013     0.053606  Biso 1.000000     H
    H   1.0     0.666316     0.158018     0.053601  Biso 1.000000     H
    H   1.0     0.666303     0.658010     0.053606  Biso 1.000000     H
    H   1.0     0.073746     0.503732     0.980968  Biso 1.000000     H
    H   1.0     0.073731     0.000000     0.980967  Biso 1.000000     H
    H   1.0     0.573718     0.503739     0.980969  Biso 1.000000     H
    H   1.0     0.573716     0.000000     0.980973  Biso 1.000000     H
    H   1.0     0.335560     0.068770     0.645371  Biso 1.000000     H
    H   1.0     0.335566     0.568761     0.645369  Biso 1.000000     H
    H   1.0     0.835550     0.068771     0.645371  Biso 1.000000     H
    H   1.0     0.835557     0.568762     0.645370  Biso 1.000000     H
    H   1.0     0.239686     0.067156     0.690102  Biso 1.000000     H
    H   1.0     0.239689     0.567149     0.690099  Biso 1.000000     H
    H   1.0     0.739677     0.067156     0.690103  Biso 1.000000     H
    H   1.0     0.739682     0.567148     0.690100  Biso 1.000000     H
    H   1.0     0.087096     0.041502     0.883791  Biso 1.000000     H
    H   1.0     0.087116     0.541505     0.883784  Biso 1.000000     H
    H   1.0     0.587092     0.041484     0.883790  Biso 1.000000     H
    H   1.0     0.587106     0.541505     0.883790  Biso 1.000000     H
    H   1.0     0.457843     0.018018     0.819824  Biso 1.000000     H
    H   1.0     0.457863     0.518033     0.819822  Biso 1.000000     H
    H   1.0     0.957836     0.018028     0.819825  Biso 1.000000     H
    H   1.0     0.957857     0.518034     0.819819  Biso 1.000000     H
    H   1.0     0.289089     0.219567     0.882382  Biso 1.000000     H
    H   1.0     0.289089     0.719567     0.882379  Biso 1.000000     H
    H   1.0     0.789077     0.219577     0.882381  Biso 1.000000     H
    H   1.0     0.789077     0.719550     0.882387  Biso 1.000000     H
    H   1.0     0.410047     0.250572     0.950897  Biso 1.000000     H
    H   1.0     0.410042     0.750577     0.950895  Biso 1.000000     H
    H   1.0     0.910034     0.250587     0.950895  Biso 1.000000     H
    H   1.0     0.910033     0.750555     0.950901  Biso 1.000000     H
    H   1.0     0.078297     0.231573     0.982621  Biso 1.000000     H
    H   1.0     0.078307     0.731557     0.982621  Biso 1.000000     H
    H   1.0     0.578305     0.231560     0.982617  Biso 1.000000     H
    H   1.0     0.578293     0.731565     0.982624  Biso 1.000000     H
    H   1.0     0.159221     0.166362     0.947665  Biso 1.000000     H
    H   1.0     0.159231     0.666347     0.947665  Biso 1.000000     H
    H   1.0     0.659220     0.166335     0.947664  Biso 1.000000     H
    H   1.0     0.659220     0.666353     0.947670  Biso 1.000000     H
    H   1.0     0.503766     0.073764     0.018993  Biso 1.000000     H
    H   1.0     0.503760     0.573759     0.018991  Biso 1.000000     H
    H   1.0     0.000000     0.073764     0.018989  Biso 1.000000     H
    H   1.0     0.000000     0.573747     0.018988  Biso 1.000000     H
    C   1.0     0.118184     0.422981     0.795999  Biso 1.000000     C
    C   1.0     0.118182     0.922969     0.796000  Biso 1.000000     C
    C   1.0     0.618175     0.422981     0.796000  Biso 1.000000     C
    C   1.0     0.618175     0.922968     0.796000  Biso 1.000000     C
    C   1.0     0.071765     0.324420     0.816224  Biso 1.000000     C
    C   1.0     0.071767     0.824407     0.816225  Biso 1.000000     C
    C   1.0     0.571753     0.324420     0.816224  Biso 1.000000     C
    C   1.0     0.571756     0.824406     0.816224  Biso 1.000000     C
    C   1.0     0.116422     0.242282     0.788474  Biso 1.000000     C
    C   1.0     0.116427     0.742272     0.788474  Biso 1.000000     C
    C   1.0     0.616408     0.242281     0.788474  Biso 1.000000     C
    C   1.0     0.616417     0.742271     0.788474  Biso 1.000000     C
    C   1.0     0.267283     0.328629     0.613527  Biso 1.000000     C
    C   1.0     0.267290     0.828666     0.613529  Biso 1.000000     C
    C   1.0     0.767270     0.328641     0.613529  Biso 1.000000     C
    C   1.0     0.767275     0.828648     0.613526  Biso 1.000000     C
    C   1.0     0.197083     0.315891     0.649747  Biso 1.000000     C
    C   1.0     0.197097     0.815923     0.649752  Biso 1.000000     C
    C   1.0     0.697073     0.315901     0.649749  Biso 1.000000     C
    C   1.0     0.697082     0.815909     0.649748  Biso 1.000000     C
    C   1.0     0.102247     0.429267     0.614481  Biso 1.000000     C
    C   1.0     0.102221     0.929255     0.614477  Biso 1.000000     C
    C   1.0     0.602228     0.429270     0.614482  Biso 1.000000     C
    C   1.0     0.602218     0.929255     0.614476  Biso 1.000000     C
    C   1.0     0.169232     0.445316     0.576858  Biso 1.000000     C
    C   1.0     0.169199     0.945309     0.576852  Biso 1.000000     C
    C   1.0     0.669211     0.445320     0.576859  Biso 1.000000     C
    C   1.0     0.669197     0.945304     0.576851  Biso 1.000000     C
    C   1.0     0.254320     0.394541     0.575873  Biso 1.000000     C
    C   1.0     0.254303     0.894558     0.575870  Biso 1.000000     C
    C   1.0     0.754302     0.394550     0.575875  Biso 1.000000     C
    C   1.0     0.754295     0.894545     0.575868  Biso 1.000000     C
    C   1.0     0.330366     0.409111     0.536576  Biso 1.000000     C
    C   1.0     0.330340     0.909132     0.536568  Biso 1.000000     C
    C   1.0     0.830346     0.409119     0.536576  Biso 1.000000     C
    C   1.0     0.830337     0.909116     0.536568  Biso 1.000000     C
    C   1.0     0.422819     0.117689     0.204218  Biso 1.000000     C
    C   1.0     0.422819     0.617681     0.204218  Biso 1.000000     C
    C   1.0     0.922812     0.117689     0.204219  Biso 1.000000     C
    C   1.0     0.922813     0.617680     0.204218  Biso 1.000000     C
    C   1.0     0.324168     0.070874     0.183832  Biso 1.000000     C
    C   1.0     0.324168     0.570869     0.183831  Biso 1.000000     C
    C   1.0     0.824161     0.070875     0.183832  Biso 1.000000     C
    C   1.0     0.824160     0.570869     0.183831  Biso 1.000000     C
    C   1.0     0.242163     0.115694     0.211470  Biso 1.000000     C
    C   1.0     0.242163     0.615687     0.211469  Biso 1.000000     C
    C   1.0     0.742156     0.115696     0.211470  Biso 1.000000     C
    C   1.0     0.742156     0.615687     0.211470  Biso 1.000000     C
    C   1.0     0.329644     0.268995     0.386598  Biso 1.000000     C
    C   1.0     0.329619     0.768992     0.386593  Biso 1.000000     C
    C   1.0     0.829629     0.268998     0.386595  Biso 1.000000     C
    C   1.0     0.829645     0.768992     0.386596  Biso 1.000000     C
    C   1.0     0.317137     0.198665     0.350162  Biso 1.000000     C
    C   1.0     0.317118     0.698658     0.350160  Biso 1.000000     C
    C   1.0     0.817126     0.198669     0.350160  Biso 1.000000     C
    C   1.0     0.817139     0.698664     0.350160  Biso 1.000000     C
    C   1.0     0.429155     0.103161     0.386080  Biso 1.000000     C
    C   1.0     0.429143     0.603167     0.386081  Biso 1.000000     C
    C   1.0     0.929119     0.103150     0.386087  Biso 1.000000     C
    C   1.0     0.929139     0.603146     0.386083  Biso 1.000000     C
    C   1.0     0.444954     0.170265     0.423925  Biso 1.000000     C
    C   1.0     0.444936     0.670277     0.423925  Biso 1.000000     C
    C   1.0     0.944913     0.170254     0.423933  Biso 1.000000     C
    C   1.0     0.944937     0.670249     0.423929  Biso 1.000000     C
    C   1.0     0.394663     0.255716     0.424723  Biso 1.000000     C
    C   1.0     0.394639     0.755724     0.424720  Biso 1.000000     C
    C   1.0     0.894634     0.255713     0.424726  Biso 1.000000     C
    C   1.0     0.894655     0.755706     0.424725  Biso 1.000000     C
    C   1.0     0.408663     0.331650     0.464382  Biso 1.000000     C
    C   1.0     0.408634     0.831666     0.464376  Biso 1.000000     C
    C   1.0     0.908633     0.331648     0.464384  Biso 1.000000     C
    C   1.0     0.908652     0.831638     0.464385  Biso 1.000000     C
    C   1.0     0.172968     0.367754     0.296120  Biso 1.000000     C
    C   1.0     0.172966     0.867746     0.296120  Biso 1.000000     C
    C   1.0     0.672961     0.367756     0.296120  Biso 1.000000     C
    C   1.0     0.672960     0.867745     0.296121  Biso 1.000000     C
    C   1.0     0.074649     0.320894     0.316250  Biso 1.000000     C
    C   1.0     0.074648     0.820887     0.316250  Biso 1.000000     C
    C   1.0     0.574642     0.320897     0.316251  Biso 1.000000     C
    C   1.0     0.574641     0.820887     0.316252  Biso 1.000000     C
    C   1.0    -0.007770     0.365659     0.288419  Biso 1.000000     C
    C   1.0    -0.007771     0.865651     0.288419  Biso 1.000000     C
    C   1.0     0.492224     0.365662     0.288420  Biso 1.000000     C
    C   1.0     0.492223     0.865650     0.288420  Biso 1.000000     C
    C   1.0     0.078957     0.019079     0.113519  Biso 1.000000     C
    C   1.0     0.078964     0.519064     0.113521  Biso 1.000000     C
    C   1.0     0.578966     0.019085     0.113524  Biso 1.000000     C
    C   1.0     0.578953     0.519069     0.113523  Biso 1.000000     C
    C   1.0     0.065664     0.448150     0.149570  Biso 1.000000     C
    C   1.0     0.065660     0.948143     0.149569  Biso 1.000000     C
    C   1.0     0.565656     0.448155     0.149573  Biso 1.000000     C
    C   1.0     0.565667     0.948151     0.149575  Biso 1.000000     C
    C   1.0     0.179820     0.354130     0.114945  Biso 1.000000     C
    C   1.0     0.179819     0.854125     0.114945  Biso 1.000000     C
    C   1.0     0.679795     0.354124     0.114942  Biso 1.000000     C
    C   1.0     0.679801     0.854112     0.114944  Biso 1.000000     C
    C   1.0     0.196455     0.421844     0.077515  Biso 1.000000     C
    C   1.0     0.196451     0.921837     0.077514  Biso 1.000000     C
    C   1.0     0.696427     0.421835     0.077510  Biso 1.000000     C
    C   1.0     0.696435     0.921821     0.077512  Biso 1.000000     C
    C   1.0     0.145599     0.506909     0.076293  Biso 1.000000     C
    C   1.0     0.145592     0.000000     0.076292  Biso 1.000000     C
    C   1.0     0.645580     0.506906     0.076293  Biso 1.000000     C
    C   1.0     0.645589     0.000000     0.076294  Biso 1.000000     C
    C   1.0     0.160738     0.083581     0.037106  Biso 1.000000     C
    C   1.0     0.160745     0.583569     0.037109  Biso 1.000000     C
    C   1.0     0.660736     0.083570     0.037106  Biso 1.000000     C
    C   1.0     0.660728     0.583566     0.037109  Biso 1.000000     C
    C   1.0     0.367414     0.172874     0.703968  Biso 1.000000     C
    C   1.0     0.367417     0.672865     0.703966  Biso 1.000000     C
    C   1.0     0.867405     0.172875     0.703969  Biso 1.000000     C
    C   1.0     0.867409     0.672865     0.703967  Biso 1.000000     C
    C   1.0     0.320277     0.074343     0.683691  Biso 1.000000     C
    C   1.0     0.320281     0.574334     0.683689  Biso 1.000000     C
    C   1.0     0.820269     0.074344     0.683691  Biso 1.000000     C
    C   1.0     0.820274     0.574334     0.683690  Biso 1.000000     C
    C   1.0     0.365304    -0.007836     0.711472  Biso 1.000000     C
    C   1.0     0.365304     0.492153     0.711470  Biso 1.000000     C
    C   1.0     0.865296    -0.007835     0.711472  Biso 1.000000     C
    C   1.0     0.865298     0.492154     0.711471  Biso 1.000000     C
    C   1.0     0.020850     0.080497     0.886473  Biso 1.000000     C
    C   1.0     0.020865     0.580493     0.886470  Biso 1.000000     C
    C   1.0     0.520847     0.080481     0.886473  Biso 1.000000     C
    C   1.0     0.520858     0.580498     0.886472  Biso 1.000000     C
    C   1.0     0.449896     0.067202     0.850201  Biso 1.000000     C
    C   1.0     0.449909     0.567215     0.850199  Biso 1.000000     C
    C   1.0     0.949887     0.067214     0.850201  Biso 1.000000     C
    C   1.0     0.949903     0.567212     0.850198  Biso 1.000000     C
    C   1.0     0.355237     0.180278     0.885334  Biso 1.000000     C
    C   1.0     0.355239     0.680281     0.885332  Biso 1.000000     C
    C   1.0     0.855225     0.180289     0.885333  Biso 1.000000     C
    C   1.0     0.855229     0.680267     0.885337  Biso 1.000000     C
    C   1.0     0.422989     0.196883     0.922988  Biso 1.000000     C
    C   1.0     0.422989     0.696890     0.922987  Biso 1.000000     C
    C   1.0     0.922977     0.196897     0.922987  Biso 1.000000     C
    C   1.0     0.922981     0.696874     0.922990  Biso 1.000000     C
    C   1.0     0.508314     0.146439     0.924112  Biso 1.000000     C
    C   1.0     0.508317     0.646451     0.924113  Biso 1.000000     C
    C   1.0     0.000000     0.146455     0.924112  Biso 1.000000     C
    C   1.0     0.000000     0.646441     0.924113  Biso 1.000000     C
    C   1.0     0.084634     0.160995     0.963734  Biso 1.000000     C
    C   1.0     0.084644     0.660980     0.963735  Biso 1.000000     C
    C   1.0     0.584634     0.160979     0.963733  Biso 1.000000     C
    C   1.0     0.584630     0.660988     0.963737  Biso 1.000000     C
    C   1.0     0.322135     0.322862     0.500254  Biso 1.000000     C
    C   1.0     0.322108     0.822879     0.500248  Biso 1.000000     C
    C   1.0     0.822099     0.322875     0.500251  Biso 1.000000     C
    C   1.0     0.822117     0.822856     0.500252  Biso 1.000000     C
    C   1.0     0.075267     0.075089     0.000181  Biso 1.000000     C
    C   1.0     0.075277     0.575074     0.000182  Biso 1.000000     C
    C   1.0     0.575276     0.075080     0.000000  Biso 1.000000     C
    C   1.0     0.575271     0.575081     0.000000  Biso 1.000000     C
    N   1.0     0.115420     0.365099     0.650393  Biso 1.000000     N
    N   1.0     0.115416     0.865105     0.650394  Biso 1.000000     N
    N   1.0     0.615406     0.365105     0.650395  Biso 1.000000     N
    N   1.0     0.615407     0.865101     0.650392  Biso 1.000000     N
    N   1.0     0.365730     0.116563     0.349742  Biso 1.000000     N
    N   1.0     0.365718     0.616560     0.349742  Biso 1.000000     N
    N   1.0     0.865710     0.116561     0.349743  Biso 1.000000     N
    N   1.0     0.865722     0.616555     0.349742  Biso 1.000000     N
    N   1.0     0.114981     0.366528     0.150455  Biso 1.000000     N
    N   1.0     0.114979     0.866523     0.150455  Biso 1.000000     N
    N   1.0     0.614966     0.366529     0.150455  Biso 1.000000     N
    N   1.0     0.614973     0.866522     0.150458  Biso 1.000000     N
    N   1.0     0.367889     0.115908     0.849487  Biso 1.000000     N
    N   1.0     0.367897     0.615912     0.849485  Biso 1.000000     N
    N   1.0     0.867879     0.115917     0.849487  Biso 1.000000     N
    N   1.0     0.867888     0.615906     0.849487  Biso 1.000000     N
    O   1.0     0.095928     0.446095     0.753383  Biso 1.000000     O
    O   1.0     0.095926     0.946084     0.753385  Biso 1.000000     O
    O   1.0     0.595920     0.446096     0.753385  Biso 1.000000     O
    O   1.0     0.595921     0.946084     0.753384  Biso 1.000000     O
    O   1.0     0.179565     0.475589     0.822776  Biso 1.000000     O
    O   1.0     0.179563     0.975577     0.822778  Biso 1.000000     O
    O   1.0     0.679557     0.475587     0.822778  Biso 1.000000     O
    O   1.0     0.679557     0.975574     0.822778  Biso 1.000000     O
    O   1.0     0.096097     0.232959     0.744130  Biso 1.000000     O
    O   1.0     0.096100     0.732948     0.744130  Biso 1.000000     O
    O   1.0     0.596088     0.232961     0.744129  Biso 1.000000     O
    O   1.0     0.596093     0.732948     0.744130  Biso 1.000000     O
    O   1.0     0.173020     0.191033     0.812395  Biso 1.000000     O
    O   1.0     0.173031     0.691027     0.812395  Biso 1.000000     O
    O   1.0     0.673000     0.191027     0.812396  Biso 1.000000     O
    O   1.0     0.673017     0.691023     0.812395  Biso 1.000000     O
    O   1.0     0.446105     0.096174     0.246904  Biso 1.000000     O
    O   1.0     0.446103     0.596165     0.246904  Biso 1.000000     O
    O   1.0     0.946097     0.096175     0.246905  Biso 1.000000     O
    O   1.0     0.946097     0.596163     0.246903  Biso 1.000000     O
    O   1.0     0.475190     0.178624     0.177425  Biso 1.000000     O
    O   1.0     0.475191     0.678615     0.177426  Biso 1.000000     O
    O   1.0     0.975184     0.178622     0.177426  Biso 1.000000     O
    O   1.0     0.975185     0.678614     0.177425  Biso 1.000000     O
    O   1.0     0.233119     0.095832     0.255795  Biso 1.000000     O
    O   1.0     0.233116     0.595821     0.255794  Biso 1.000000     O
    O   1.0     0.733111     0.095833     0.255795  Biso 1.000000     O
    O   1.0     0.733112     0.595823     0.255795  Biso 1.000000     O
    O   1.0     0.190685     0.171974     0.187514  Biso 1.000000     O
    O   1.0     0.190686     0.671969     0.187514  Biso 1.000000     O
    O   1.0     0.690679     0.171977     0.187515  Biso 1.000000     O
    O   1.0     0.690678     0.671968     0.187515  Biso 1.000000     O
    O   1.0     0.196014     0.345735     0.253573  Biso 1.000000     O
    O   1.0     0.196013     0.845726     0.253573  Biso 1.000000     O
    O   1.0     0.696007     0.345736     0.253573  Biso 1.000000     O
    O   1.0     0.696007     0.845724     0.253574  Biso 1.000000     O
    O   1.0     0.225498     0.429220     0.322859  Biso 1.000000     O
    O   1.0     0.225496     0.929211     0.322858  Biso 1.000000     O
    O   1.0     0.725492     0.429221     0.322859  Biso 1.000000     O
    O   1.0     0.725491     0.929210     0.322860  Biso 1.000000     O
    O   1.0     0.482968     0.346105     0.244025  Biso 1.000000     O
    O   1.0     0.482968     0.846094     0.244025  Biso 1.000000     O
    O   1.0     0.982963     0.346104     0.244025  Biso 1.000000     O
    O   1.0     0.982962     0.846094     0.244025  Biso 1.000000     O
    O   1.0     0.440701     0.421504     0.312371  Biso 1.000000     O
    O   1.0     0.440699     0.921491     0.312371  Biso 1.000000     O
    O   1.0     0.940695     0.421501     0.312371  Biso 1.000000     O
    O   1.0     0.940693     0.921491     0.312371  Biso 1.000000     O
    O   1.0     0.345983     0.196146     0.746549  Biso 1.000000     O
    O   1.0     0.345986     0.696136     0.746547  Biso 1.000000     O
    O   1.0     0.845974     0.196147     0.746550  Biso 1.000000     O
    O   1.0     0.845978     0.696135     0.746549  Biso 1.000000     O
    O   1.0     0.428487     0.225200     0.677262  Biso 1.000000     O
    O   1.0     0.428491     0.725191     0.677260  Biso 1.000000     O
    O   1.0     0.928479     0.225201     0.677263  Biso 1.000000     O
    O   1.0     0.928483     0.725191     0.677261  Biso 1.000000     O
    O   1.0     0.345945     0.483027     0.755818  Biso 1.000000     O
    O   1.0     0.345944     0.983013     0.755819  Biso 1.000000     O
    O   1.0     0.845939     0.483027     0.755818  Biso 1.000000     O
    O   1.0     0.845937     0.983015     0.755820  Biso 1.000000     O
    O   1.0     0.421246     0.440694     0.687577  Biso 1.000000     O
    O   1.0     0.421248     0.940684     0.687578  Biso 1.000000     O
    O   1.0     0.921243     0.440696     0.687577  Biso 1.000000     O
    O   1.0     0.921240     0.940685     0.687578  Biso 1.000000     O
   Zn   1.0     0.017039     0.341350     0.708426  Biso 1.000000    Zn
   Zn   1.0     0.017038     0.841339     0.708427  Biso 1.000000    Zn
   Zn   1.0     0.517031     0.341350     0.708427  Biso 1.000000    Zn
   Zn   1.0     0.517033     0.841339     0.708426  Biso 1.000000    Zn
   Zn   1.0     0.341426     0.017271     0.291613  Biso 1.000000    Zn
   Zn   1.0     0.341425     0.517260     0.291614  Biso 1.000000    Zn
   Zn   1.0     0.841419     0.017271     0.291613  Biso 1.000000    Zn
   Zn   1.0     0.841420     0.517259     0.291613  Biso 1.000000    Zn
   Zn   1.0     0.091323     0.267281     0.208448  Biso 1.000000    Zn
   Zn   1.0     0.091322     0.767272     0.208448  Biso 1.000000    Zn
   Zn   1.0     0.591315     0.267282     0.208449  Biso 1.000000    Zn
   Zn   1.0     0.591315     0.767272     0.208449  Biso 1.000000    Zn
   Zn   1.0     0.267786     0.091372     0.791525  Biso 1.000000    Zn
   Zn   1.0     0.267791     0.591361     0.791525  Biso 1.000000    Zn
   Zn   1.0     0.767775     0.091373     0.791526  Biso 1.000000    Zn
   Zn   1.0     0.767782     0.591360     0.791526  Biso 1.000000    Zn
