#======================================================================

# CRYSTAL DATA

#----------------------------------------------------------------------

data_VESTA_phase_1


_pd_phase_name                         MOF
_cell_length_a                         13.90900
_cell_length_b                         13.03000
_cell_length_c                         26.70500
_cell_angle_alpha                      89.97000
_cell_angle_beta                       90.21400
_cell_angle_gamma                      85.14500
_symmetry_space_group_name_H-M         "P 1"
_symmetry_Int_Tables_number            1

loop_
_symmetry_equiv_pos_as_xyz
   "x, y, z"

loop_
   _atom_site_label
   _atom_site_occupancy
   _atom_site_fract_x
   _atom_site_fract_y
   _atom_site_fract_z
   _atom_site_adp_type
   _atom_site_B_iso_or_equiv
   _atom_site_type_symbol
    H   1.0     0.231681     0.178892     0.687465  Biso 1.000000     H
    H   1.0     0.234684     0.679837     0.687484  Biso 1.000000     H
    H   1.0     0.731669     0.178892     0.687465  Biso 1.000000     H
    H   1.0     0.734672     0.679837     0.687485  Biso 1.000000     H
    H   1.0     0.228836     0.280302     0.641557  Biso 1.000000     H
    H   1.0     0.232735     0.781005     0.641496  Biso 1.000000     H
    H   1.0     0.728824     0.280302     0.641558  Biso 1.000000     H
    H   1.0     0.732723     0.781005     0.641496  Biso 1.000000     H
    H   1.0     0.133780     0.299444     0.978992  Biso 1.000000     H
    H   1.0     0.132512     0.799750     0.978860  Biso 1.000000     H
    H   1.0     0.633795     0.299434     0.978996  Biso 1.000000     H
    H   1.0     0.632537     0.799732     0.978866  Biso 1.000000     H
    H   1.0     0.137172     0.194996     0.899694  Biso 1.000000     H
    H   1.0     0.135581     0.695783     0.899381  Biso 1.000000     H
    H   1.0     0.637177     0.194990     0.899697  Biso 1.000000     H
    H   1.0     0.635592     0.695773     0.899384  Biso 1.000000     H
    H   1.0     0.262173     0.421459     0.820695  Biso 1.000000     H
    H   1.0     0.262274     0.921792     0.820907  Biso 1.000000     H
    H   1.0     0.762161     0.421460     0.820695  Biso 1.000000     H
    H   1.0     0.762260     0.921794     0.820907  Biso 1.000000     H
    H   1.0     0.263097     0.035724     0.894718  Biso 1.000000     H
    H   1.0     0.262527     0.535946     0.894361  Biso 1.000000     H
    H   1.0     0.763095     0.035720     0.894720  Biso 1.000000     H
    H   1.0     0.762526     0.535943     0.894362  Biso 1.000000     H
    H   1.0     0.162672     0.070181     0.981924  Biso 1.000000     H
    H   1.0     0.163299     0.570576     0.981498  Biso 1.000000     H
    H   1.0     0.662687     0.070167     0.981930  Biso 1.000000     H
    H   1.0     0.663310     0.570568     0.981501  Biso 1.000000     H
    H   1.0     0.155921     0.460888     0.019859  Biso 1.000000     H
    H   1.0     0.156462     0.960158     0.020176  Biso 1.000000     H
    H   1.0     0.655933     0.460880     0.019862  Biso 1.000000     H
    H   1.0     0.656479     0.960142     0.020180  Biso 1.000000     H
    H   1.0     0.014740     0.570119     0.186839  Biso 1.000000     H
    H   1.0     0.014641     0.000000     0.187605  Biso 1.000000     H
    H   1.0     0.514728     0.570118     0.186838  Biso 1.000000     H
    H   1.0     0.514629     0.000000     0.187604  Biso 1.000000     H
    H   1.0     0.016327     0.468149     0.141318  Biso 1.000000     H
    H   1.0     0.016486     0.969888     0.141586  Biso 1.000000     H
    H   1.0     0.516316     0.468146     0.141317  Biso 1.000000     H
    H   1.0     0.516474     0.969887     0.141586  Biso 1.000000     H
    H   1.0     0.117665     0.450121     0.479450  Biso 1.000000     H
    H   1.0     0.115159     0.952709     0.479952  Biso 1.000000     H
    H   1.0     0.617656     0.450119     0.479449  Biso 1.000000     H
    H   1.0     0.615149     0.952707     0.479952  Biso 1.000000     H
    H   1.0     0.112098     0.056250     0.400315  Biso 1.000000     H
    H   1.0     0.116693     0.554005     0.399992  Biso 1.000000     H
    H   1.0     0.612088     0.056248     0.400315  Biso 1.000000     H
    H   1.0     0.616683     0.554004     0.399992  Biso 1.000000     H
    H   1.0    -0.010633     0.329356     0.320458  Biso 1.000000     H
    H   1.0    -0.008179     0.826702     0.320891  Biso 1.000000     H
    H   1.0     0.489355     0.329356     0.320458  Biso 1.000000     H
    H   1.0     0.491809     0.826702     0.320891  Biso 1.000000     H
    H   1.0    -0.013129     0.215317     0.394217  Biso 1.000000     H
    H   1.0    -0.008825     0.713171     0.394859  Biso 1.000000     H
    H   1.0     0.486860     0.215317     0.394216  Biso 1.000000     H
    H   1.0     0.491163     0.713170     0.394859  Biso 1.000000     H
    H   1.0     0.087396     0.180397     0.482319  Biso 1.000000     H
    H   1.0     0.089105     0.681002     0.483137  Biso 1.000000     H
    H   1.0     0.587383     0.180395     0.482318  Biso 1.000000     H
    H   1.0     0.589092     0.680999     0.483136  Biso 1.000000     H
    H   1.0     0.091952     0.290455     0.520650  Biso 1.000000     H
    H   1.0     0.093499     0.791451     0.521268  Biso 1.000000     H
    H   1.0     0.591943     0.290453     0.520649  Biso 1.000000     H
    H   1.0     0.593489     0.791447     0.521267  Biso 1.000000     H
    H   1.0     0.265323     0.320155     0.312531  Biso 1.000000     H
    H   1.0     0.268325     0.821101     0.312545  Biso 1.000000     H
    H   1.0     0.765311     0.320154     0.312531  Biso 1.000000     H
    H   1.0     0.768313     0.821102     0.312546  Biso 1.000000     H
    H   1.0     0.267268     0.218987     0.358519  Biso 1.000000     H
    H   1.0     0.271173     0.719698     0.358456  Biso 1.000000     H
    H   1.0     0.767256     0.218987     0.358519  Biso 1.000000     H
    H   1.0     0.771161     0.719698     0.358457  Biso 1.000000     H
    H   1.0     0.367462     0.200271     0.021152  Biso 1.000000     H
    H   1.0     0.366206     0.700560     0.021020  Biso 1.000000     H
    H   1.0     0.867487     0.200253     0.021158  Biso 1.000000     H
    H   1.0     0.866222     0.700550     0.021024  Biso 1.000000     H
    H   1.0     0.364402     0.304227     0.100635  Biso 1.000000     H
    H   1.0     0.362822     0.805003     0.100320  Biso 1.000000     H
    H   1.0     0.864414     0.304217     0.100638  Biso 1.000000     H
    H   1.0     0.862826     0.804997     0.100323  Biso 1.000000     H
    H   1.0     0.237739     0.078199     0.179110  Biso 1.000000     H
    H   1.0     0.237830     0.578533     0.179318  Biso 1.000000     H
    H   1.0     0.737724     0.078201     0.179110  Biso 1.000000     H
    H   1.0     0.737818     0.578534     0.179318  Biso 1.000000     H
    H   1.0     0.237468     0.464052     0.105651  Biso 1.000000     H
    H   1.0     0.236909     0.964276     0.105295  Biso 1.000000     H
    H   1.0     0.737467     0.464048     0.105652  Biso 1.000000     H
    H   1.0     0.736907     0.964271     0.105297  Biso 1.000000     H
    H   1.0     0.336690     0.429428     0.018512  Biso 1.000000     H
    H   1.0     0.337317     0.929834     0.018086  Biso 1.000000     H
    H   1.0     0.836700     0.429420     0.018516  Biso 1.000000     H
    H   1.0     0.837333     0.929820     0.018091  Biso 1.000000     H
    H   1.0     0.343525     0.039861     0.979836  Biso 1.000000     H
    H   1.0     0.344066     0.539118     0.980152  Biso 1.000000     H
    H   1.0     0.843542     0.039846     0.979841  Biso 1.000000     H
    H   1.0     0.844077     0.539110     0.980155  Biso 1.000000     H
    H   1.0     0.485363    -0.070918     0.812416  Biso 1.000000     H
    H   1.0     0.485265     0.429874     0.813182  Biso 1.000000     H
    H   1.0     0.985351    -0.070919     0.812415  Biso 1.000000     H
    H   1.0     0.985254     0.429873     0.813181  Biso 1.000000     H
    H   1.0     0.483518     0.030108     0.858432  Biso 1.000000     H
    H   1.0     0.483674     0.531849     0.858701  Biso 1.000000     H
    H   1.0     0.983507     0.030107     0.858432  Biso 1.000000     H
    H   1.0     0.983663     0.531847     0.858700  Biso 1.000000     H
    H   1.0     0.384856     0.047304     0.520066  Biso 1.000000     H
    H   1.0     0.382344     0.549889     0.520568  Biso 1.000000     H
    H   1.0     0.884845     0.047301     0.520065  Biso 1.000000     H
    H   1.0     0.882334     0.549888     0.520568  Biso 1.000000     H
    H   1.0     0.383311     0.445999     0.600023  Biso 1.000000     H
    H   1.0     0.387912     0.943755     0.599700  Biso 1.000000     H
    H   1.0     0.883300     0.445998     0.600023  Biso 1.000000     H
    H   1.0     0.887901     0.943753     0.599700  Biso 1.000000     H
    H   1.0     0.508193     0.173288     0.679132  Biso 1.000000     H
    H   1.0     0.510639     0.670637     0.679564  Biso 1.000000     H
    H   1.0     0.000000     0.173288     0.679132  Biso 1.000000     H
    H   1.0     0.000000     0.670637     0.679564  Biso 1.000000     H
    H   1.0     0.508843     0.286828     0.605167  Biso 1.000000     H
    H   1.0     0.513142     0.784681     0.605808  Biso 1.000000     H
    H   1.0     0.000000     0.286828     0.605166  Biso 1.000000     H
    H   1.0     0.000000     0.784681     0.605808  Biso 1.000000     H
    H   1.0     0.410918     0.319011     0.516890  Biso 1.000000     H
    H   1.0     0.412621     0.819611     0.517705  Biso 1.000000     H
    H   1.0     0.910903     0.319009     0.516889  Biso 1.000000     H
    H   1.0     0.912608     0.819610     0.517704  Biso 1.000000     H
    H   1.0     0.406514     0.208567     0.478756  Biso 1.000000     H
    H   1.0     0.408064     0.709556     0.479372  Biso 1.000000     H
    H   1.0     0.906503     0.208564     0.478755  Biso 1.000000     H
    H   1.0     0.908055     0.709554     0.479371  Biso 1.000000     H
    C   1.0     0.309731     0.307122     0.709176  Biso 1.000000     C
    C   1.0     0.312415     0.808080     0.709529  Biso 1.000000     C
    C   1.0     0.809719     0.307121     0.709176  Biso 1.000000     C
    C   1.0     0.812404     0.808079     0.709529  Biso 1.000000     C
    C   1.0     0.225884     0.262891     0.681559  Biso 1.000000     C
    C   1.0     0.228994     0.763812     0.681494  Biso 1.000000     C
    C   1.0     0.725872     0.262891     0.681559  Biso 1.000000     C
    C   1.0     0.728983     0.763812     0.681494  Biso 1.000000     C
    C   1.0     0.131133     0.308935     0.703904  Biso 1.000000     C
    C   1.0     0.133850     0.810042     0.703294  Biso 1.000000     C
    C   1.0     0.631122     0.308935     0.703904  Biso 1.000000     C
    C   1.0     0.633838     0.810041     0.703295  Biso 1.000000     C
    C   1.0     0.163306     0.329388     0.944654  Biso 1.000000     C
    C   1.0     0.162287     0.829706     0.944589  Biso 1.000000     C
    C   1.0     0.663316     0.329380     0.944657  Biso 1.000000     C
    C   1.0     0.662304     0.829692     0.944594  Biso 1.000000     C
    C   1.0     0.165415     0.270523     0.901172  Biso 1.000000     C
    C   1.0     0.164175     0.771127     0.901016  Biso 1.000000     C
    C   1.0     0.665419     0.270517     0.901175  Biso 1.000000     C
    C   1.0     0.664183     0.771117     0.901019  Biso 1.000000     C
    C   1.0     0.235053     0.397374     0.856652  Biso 1.000000     C
    C   1.0     0.234786     0.897734     0.856781  Biso 1.000000     C
    C   1.0     0.735047     0.397373     0.856653  Biso 1.000000     C
    C   1.0     0.734780     0.897732     0.856782  Biso 1.000000     C
    C   1.0     0.234778     0.460688     0.898537  Biso 1.000000     C
    C   1.0     0.234774     0.960722     0.898758  Biso 1.000000     C
    C   1.0     0.734778     0.460684     0.898538  Biso 1.000000     C
    C   1.0     0.734776     0.960716     0.898761  Biso 1.000000     C
    C   1.0     0.198651     0.427072     0.943969  Biso 1.000000     C
    C   1.0     0.198265     0.927085     0.944091  Biso 1.000000     C
    C   1.0     0.698659     0.427065     0.943971  Biso 1.000000     C
    C   1.0     0.698278     0.927073     0.944095  Biso 1.000000     C
    C   1.0     0.198509     0.493625     0.990130  Biso 1.000000     C
    C   1.0     0.198433     0.993354     0.990332  Biso 1.000000     C
    C   1.0     0.698520     0.493617     0.990132  Biso 1.000000     C
    C   1.0     0.698449     0.993339     0.990336  Biso 1.000000     C
    C   1.0     0.438513     0.441648     0.209774  Biso 1.000000     C
    C   1.0     0.437559     0.942285     0.209494  Biso 1.000000     C
    C   1.0     0.938501     0.441648     0.209774  Biso 1.000000     C
    C   1.0     0.937548     0.942285     0.209494  Biso 1.000000     C
    C   1.0     0.020943     0.486060     0.181214  Biso 1.000000     C
    C   1.0     0.020521     0.986961     0.181593  Biso 1.000000     C
    C   1.0     0.520932     0.486059     0.181213  Biso 1.000000     C
    C   1.0     0.520509     0.986960     0.181592  Biso 1.000000     C
    C   1.0     0.116691     0.440761     0.203015  Biso 1.000000     C
    C   1.0     0.115960     0.940946     0.203543  Biso 1.000000     C
    C   1.0     0.616679     0.440760     0.203015  Biso 1.000000     C
    C   1.0     0.615948     0.940945     0.203542  Biso 1.000000     C
    C   1.0     0.088231     0.420397     0.444940  Biso 1.000000     C
    C   1.0     0.086819     0.921842     0.445435  Biso 1.000000     C
    C   1.0     0.588221     0.420395     0.444939  Biso 1.000000     C
    C   1.0     0.586808     0.921840     0.445435  Biso 1.000000     C
    C   1.0     0.087494     0.478956     0.401343  Biso 1.000000     C
    C   1.0     0.084885     0.980214     0.401748  Biso 1.000000     C
    C   1.0     0.587484     0.478955     0.401343  Biso 1.000000     C
    C   1.0     0.584874     0.980213     0.401748  Biso 1.000000     C
    C   1.0     0.016653     0.353083     0.356533  Biso 1.000000     C
    C   1.0     0.017904     0.851692     0.356992  Biso 1.000000     C
    C   1.0     0.516641     0.353083     0.356533  Biso 1.000000     C
    C   1.0     0.517892     0.851692     0.356992  Biso 1.000000     C
    C   1.0     0.015609     0.290071     0.398517  Biso 1.000000     C
    C   1.0     0.018054     0.788851     0.399071  Biso 1.000000     C
    C   1.0     0.515598     0.290071     0.398516  Biso 1.000000     C
    C   1.0     0.518041     0.788850     0.399071  Biso 1.000000     C
    C   1.0     0.051644     0.323317     0.444164  Biso 1.000000     C
    C   1.0     0.052679     0.823566     0.444750  Biso 1.000000     C
    C   1.0     0.551633     0.323316     0.444164  Biso 1.000000     C
    C   1.0     0.552667     0.823565     0.444749  Biso 1.000000     C
    C   1.0     0.050839     0.256918     0.490402  Biso 1.000000     C
    C   1.0     0.052440     0.757507     0.491122  Biso 1.000000     C
    C   1.0     0.550828     0.256917     0.490402  Biso 1.000000     C
    C   1.0     0.552428     0.757505     0.491121  Biso 1.000000     C
    C   1.0     0.187586     0.191917     0.290487  Biso 1.000000     C
    C   1.0     0.190278     0.692866     0.290839  Biso 1.000000     C
    C   1.0     0.687575     0.191916     0.290487  Biso 1.000000     C
    C   1.0     0.690266     0.692867     0.290839  Biso 1.000000     C
    C   1.0     0.271010     0.236180     0.318521  Biso 1.000000     C
    C   1.0     0.274124     0.737102     0.318454  Biso 1.000000     C
    C   1.0     0.770998     0.236179     0.318521  Biso 1.000000     C
    C   1.0     0.774112     0.737103     0.318455  Biso 1.000000     C
    C   1.0     0.366154     0.189947     0.296721  Biso 1.000000     C
    C   1.0     0.368875     0.691059     0.296110  Biso 1.000000     C
    C   1.0     0.866143     0.189946     0.296722  Biso 1.000000     C
    C   1.0     0.868863     0.691060     0.296110  Biso 1.000000     C
    C   1.0     0.337696     0.170308     0.055424  Biso 1.000000     C
    C   1.0     0.336683     0.670614     0.055358  Biso 1.000000     C
    C   1.0     0.837712     0.170295     0.055428  Biso 1.000000     C
    C   1.0     0.836693     0.670606     0.055361  Biso 1.000000     C
    C   1.0     0.335814     0.228882     0.098999  Biso 1.000000     C
    C   1.0     0.334579     0.729476     0.098841  Biso 1.000000     C
    C   1.0     0.835823     0.228872     0.099002  Biso 1.000000     C
    C   1.0     0.834582     0.729471     0.098843  Biso 1.000000     C
    C   1.0     0.265219     0.102263     0.143235  Biso 1.000000     C
    C   1.0     0.264946     0.602620     0.143361  Biso 1.000000     C
    C   1.0     0.765213     0.102261     0.143236  Biso 1.000000     C
    C   1.0     0.764940     0.602619     0.143362  Biso 1.000000     C
    C   1.0     0.265226     0.039280     0.101256  Biso 1.000000     C
    C   1.0     0.265217     0.539310     0.101475  Biso 1.000000     C
    C   1.0     0.765228     0.039274     0.101258  Biso 1.000000     C
    C   1.0     0.765218     0.539306     0.101476  Biso 1.000000     C
    C   1.0     0.301724     0.072927     0.055922  Biso 1.000000     C
    C   1.0     0.301339     0.572929     0.056043  Biso 1.000000     C
    C   1.0     0.801737     0.072915     0.055926  Biso 1.000000     C
    C   1.0     0.801347     0.572923     0.056045  Biso 1.000000     C
    C   1.0     0.301554     0.006662     0.009680  Biso 1.000000     C
    C   1.0     0.301479     0.506379     0.009881  Biso 1.000000     C
    C   1.0     0.801571     0.006647     0.009684  Biso 1.000000     C
    C   1.0     0.801490     0.506372     0.009884  Biso 1.000000     C
    C   1.0     0.062445     0.057703     0.790523  Biso 1.000000     C
    C   1.0     0.061491     0.558343     0.790244  Biso 1.000000     C
    C   1.0     0.562433     0.057704     0.790524  Biso 1.000000     C
    C   1.0     0.561479     0.558343     0.790245  Biso 1.000000     C
    C   1.0     0.479483     0.013031     0.818426  Biso 1.000000     C
    C   1.0     0.479060     0.513933     0.818805  Biso 1.000000     C
    C   1.0     0.979471     0.013030     0.818426  Biso 1.000000     C
    C   1.0     0.979048     0.513932     0.818804  Biso 1.000000     C
    C   1.0     0.384045     0.059044     0.796475  Biso 1.000000     C
    C   1.0     0.383313     0.559228     0.797002  Biso 1.000000     C
    C   1.0     0.884033     0.059044     0.796475  Biso 1.000000     C
    C   1.0     0.883301     0.559228     0.797001  Biso 1.000000     C
    C   1.0     0.413196     0.078166     0.554584  Biso 1.000000     C
    C   1.0     0.411778     0.579610     0.555079  Biso 1.000000     C
    C   1.0     0.913184     0.078164     0.554584  Biso 1.000000     C
    C   1.0     0.911767     0.579609     0.555079  Biso 1.000000     C
    C   1.0     0.415127     0.019789     0.598270  Biso 1.000000     C
    C   1.0     0.412512     0.521047     0.598674  Biso 1.000000     C
    C   1.0     0.915115     0.019787     0.598270  Biso 1.000000     C
    C   1.0     0.912501     0.521046     0.598674  Biso 1.000000     C
    C   1.0     0.482111     0.148304     0.643030  Biso 1.000000     C
    C   1.0     0.483355     0.646914     0.643488  Biso 1.000000     C
    C   1.0     0.982098     0.148303     0.643029  Biso 1.000000     C
    C   1.0     0.983343     0.646913     0.643488  Biso 1.000000     C
    C   1.0     0.481964     0.211150     0.600952  Biso 1.000000     C
    C   1.0     0.484402     0.709928     0.601506  Biso 1.000000     C
    C   1.0     0.981951     0.211149     0.600952  Biso 1.000000     C
    C   1.0     0.984390     0.709928     0.601506  Biso 1.000000     C
    C   1.0     0.447339     0.176440     0.555273  Biso 1.000000     C
    C   1.0     0.448369     0.676688     0.555857  Biso 1.000000     C
    C   1.0     0.947326     0.176439     0.555272  Biso 1.000000     C
    C   1.0     0.948358     0.676687     0.555857  Biso 1.000000     C
    C   1.0     0.447578     0.242505     0.508902  Biso 1.000000     C
    C   1.0     0.449177     0.743090     0.509620  Biso 1.000000     C
    C   1.0     0.947565     0.242503     0.508902  Biso 1.000000     C
    C   1.0     0.949166     0.743090     0.509620  Biso 1.000000     C
    N   1.0     0.201398     0.303436     0.857760  Biso 1.000000     N
    N   1.0     0.200497     0.804102     0.857703  Biso 1.000000     N
    N   1.0     0.701393     0.303434     0.857761  Biso 1.000000     N
    N   1.0     0.700494     0.804099     0.857705  Biso 1.000000     N
    N   1.0     0.051644     0.446391     0.357700  Biso 1.000000     N
    N   1.0     0.050281     0.946233     0.358101  Biso 1.000000     N
    N   1.0     0.551633     0.446390     0.357700  Biso 1.000000     N
    N   1.0     0.550269     0.946232     0.358101  Biso 1.000000     N
    N   1.0     0.299502     0.195897     0.142313  Biso 1.000000     N
    N   1.0     0.298601     0.696559     0.142253  Biso 1.000000     N
    N   1.0     0.799499     0.195893     0.142314  Biso 1.000000     N
    N   1.0     0.798597     0.696557     0.142254  Biso 1.000000     N
    N   1.0     0.449731     0.053764     0.641918  Biso 1.000000     N
    N   1.0     0.448360     0.553607     0.642318  Biso 1.000000     N
    N   1.0     0.949719     0.053764     0.641917  Biso 1.000000     N
    N   1.0     0.948349     0.553606     0.642318  Biso 1.000000     N
    O   1.0     0.319810     0.289273     0.755696  Biso 1.000000     O
    O   1.0     0.320750     0.791214     0.756202  Biso 1.000000     O
    O   1.0     0.819798     0.289272     0.755696  Biso 1.000000     O
    O   1.0     0.820739     0.791214     0.756202  Biso 1.000000     O
    O   1.0     0.363515     0.360225     0.682967  Biso 1.000000     O
    O   1.0     0.367458     0.859986     0.683456  Biso 1.000000     O
    O   1.0     0.863503     0.360224     0.682967  Biso 1.000000     O
    O   1.0     0.867447     0.859985     0.683456  Biso 1.000000     O
    O   1.0     0.112754     0.289661     0.749360  Biso 1.000000     O
    O   1.0     0.114214     0.790739     0.748618  Biso 1.000000     O
    O   1.0     0.612742     0.289661     0.749361  Biso 1.000000     O
    O   1.0     0.614204     0.790740     0.748618  Biso 1.000000     O
    O   1.0     0.075503     0.365823     0.675479  Biso 1.000000     O
    O   1.0     0.079063     0.867381     0.674704  Biso 1.000000     O
    O   1.0     0.575492     0.365823     0.675480  Biso 1.000000     O
    O   1.0     0.579052     0.867381     0.674704  Biso 1.000000     O
    O   1.0     0.432333     0.457974     0.256496  Biso 1.000000     O
    O   1.0     0.429271     0.959356     0.256115  Biso 1.000000     O
    O   1.0     0.932321     0.457974     0.256496  Biso 1.000000     O
    O   1.0     0.929259     0.959356     0.256115  Biso 1.000000     O
    O   1.0     0.382297     0.390214     0.183959  Biso 1.000000     O
    O   1.0     0.382805     0.889754     0.183374  Biso 1.000000     O
    O   1.0     0.882286     0.390214     0.183959  Biso 1.000000     O
    O   1.0     0.882794     0.889753     0.183374  Biso 1.000000     O
    O   1.0     0.137638     0.461982     0.248031  Biso 1.000000     O
    O   1.0     0.135817     0.960087     0.248916  Biso 1.000000     O
    O   1.0     0.637626     0.461981     0.248031  Biso 1.000000     O
    O   1.0     0.635805     0.960087     0.248916  Biso 1.000000     O
    O   1.0     0.170625     0.382110     0.174836  Biso 1.000000     O
    O   1.0     0.170716     0.884071     0.174957  Biso 1.000000     O
    O   1.0     0.670614     0.382109     0.174836  Biso 1.000000     O
    O   1.0     0.670705     0.884070     0.174957  Biso 1.000000     O
    O   1.0     0.179255     0.208774     0.243812  Biso 1.000000     O
    O   1.0     0.180195     0.710715     0.244319  Biso 1.000000     O
    O   1.0     0.679243     0.208775     0.243812  Biso 1.000000     O
    O   1.0     0.680185     0.710714     0.244319  Biso 1.000000     O
    O   1.0     0.132533     0.140025     0.316561  Biso 1.000000     O
    O   1.0     0.136496     0.639763     0.317049  Biso 1.000000     O
    O   1.0     0.632522     0.140024     0.316561  Biso 1.000000     O
    O   1.0     0.636485     0.639762     0.317048  Biso 1.000000     O
    O   1.0     0.385790     0.209247     0.251398  Biso 1.000000     O
    O   1.0     0.387251     0.710326     0.250652  Biso 1.000000     O
    O   1.0     0.885780     0.209248     0.251399  Biso 1.000000     O
    O   1.0     0.887240     0.710326     0.250653  Biso 1.000000     O
    O   1.0     0.420938     0.132607     0.325312  Biso 1.000000     O
    O   1.0     0.424509     0.634181     0.324537  Biso 1.000000     O
    O   1.0     0.920927     0.132606     0.325313  Biso 1.000000     O
    O   1.0     0.924497     0.634181     0.324537  Biso 1.000000     O
    O   1.0     0.070733     0.040630     0.743902  Biso 1.000000     O
    O   1.0     0.067673     0.542014     0.743523  Biso 1.000000     O
    O   1.0     0.570721     0.040630     0.743903  Biso 1.000000     O
    O   1.0     0.567661     0.542015     0.743523  Biso 1.000000     O
    O   1.0     0.117197     0.110238     0.816642  Biso 1.000000     O
    O   1.0     0.117705     0.609779     0.816059  Biso 1.000000     O
    O   1.0     0.617186     0.110238     0.816642  Biso 1.000000     O
    O   1.0     0.617694     0.609779     0.816060  Biso 1.000000     O
    O   1.0     0.364189     0.039902     0.751102  Biso 1.000000     O
    O   1.0     0.362367     0.538004     0.751986  Biso 1.000000     O
    O   1.0     0.864178     0.039901     0.751102  Biso 1.000000     O
    O   1.0     0.862355     0.538004     0.751985  Biso 1.000000     O
    O   1.0     0.329286     0.115920     0.825060  Biso 1.000000     O
    O   1.0     0.329377     0.617880     0.825180  Biso 1.000000     O
    O   1.0     0.829275     0.115919     0.825060  Biso 1.000000     O
    O   1.0     0.829365     0.617879     0.825180  Biso 1.000000     O
   Zn   1.0     0.216480     0.208739     0.794013  Biso 1.000000    Zn
   Zn   1.0     0.216366     0.710091     0.793910  Biso 1.000000    Zn
   Zn   1.0     0.716468     0.208739     0.794013  Biso 1.000000    Zn
   Zn   1.0     0.716355     0.710091     0.793910  Biso 1.000000    Zn
   Zn   1.0     0.033572     0.040366     0.294059  Biso 1.000000    Zn
   Zn   1.0     0.037048     0.541643     0.293851  Biso 1.000000    Zn
   Zn   1.0     0.533560     0.040366     0.294059  Biso 1.000000    Zn
   Zn   1.0     0.537036     0.541643     0.293850  Biso 1.000000    Zn
   Zn   1.0     0.283637     0.289900     0.206106  Biso 1.000000    Zn
   Zn   1.0     0.283523     0.791249     0.206002  Biso 1.000000    Zn
   Zn   1.0     0.783626     0.289900     0.206106  Biso 1.000000    Zn
   Zn   1.0     0.783512     0.791249     0.206002  Biso 1.000000    Zn
   Zn   1.0     0.462957     0.458347     0.706166  Biso 1.000000    Zn
   Zn   1.0     0.466432     0.959623     0.705958  Biso 1.000000    Zn
   Zn   1.0     0.962945     0.458346     0.706166  Biso 1.000000    Zn
   Zn   1.0     0.966420     0.959623     0.705958  Biso 1.000000    Zn
