#======================================================================

# CRYSTAL DATA

#----------------------------------------------------------------------

data_VESTA_phase_1


_pd_phase_name                         MOF
_cell_length_a                         12.33300
_cell_length_b                         14.12500
_cell_length_c                         16.25200
_cell_angle_alpha                      89.99900
_cell_angle_beta                       90.00000
_cell_angle_gamma                      111.99600
_symmetry_space_group_name_H-M         "P 1"
_symmetry_Int_Tables_number            1

loop_
_symmetry_equiv_pos_as_xyz
   "x, y, z"

loop_
   _atom_site_label
   _atom_site_occupancy
   _atom_site_fract_x
   _atom_site_fract_y
   _atom_site_fract_z
   _atom_site_adp_type
   _atom_site_B_iso_or_equiv
   _atom_site_type_symbol
    H   1.0     0.087104     0.878575     0.952352  Biso 1.000000     H
    H   1.0     0.928200     0.803539     0.149186  Biso 1.000000     H
    H   1.0     0.035446     0.787546     0.083292  Biso 1.000000     H
    H   1.0     0.897580     0.576403     0.079817  Biso 1.000000     H
    H   1.0     0.812534     0.613401     0.153238  Biso 1.000000     H
    H   1.0     0.605195     0.522113     0.163119  Biso 1.000000     H
    H   1.0     0.425788     0.382077     0.111847  Biso 1.000000     H
    H   1.0     0.783315     0.477470     0.945763  Biso 1.000000     H
    H   1.0     0.597697     0.343931     0.902142  Biso 1.000000     H
    H   1.0     0.877076     0.029409     0.183735  Biso 1.000000     H
    H   1.0     0.853326     0.896817     0.184948  Biso 1.000000     H
    H   1.0     0.530916     0.893930     0.191683  Biso 1.000000     H
    H   1.0     0.616072     0.826186     0.230093  Biso 1.000000     H
    H   1.0     0.766039     0.899765     0.334937  Biso 1.000000     H
    H   1.0     0.850477     0.034897     0.440518  Biso 1.000000     H
    H   1.0     0.593907     0.087306     0.229602  Biso 1.000000     H
    H   1.0     0.681977     0.213031     0.341833  Biso 1.000000     H
    H   1.0     0.412900     0.121406     0.452362  Biso 1.000000     H
    H   1.0     0.571836     0.196445     0.649169  Biso 1.000000     H
    H   1.0     0.464564     0.212440     0.583272  Biso 1.000000     H
    H   1.0     0.602465     0.423584     0.579804  Biso 1.000000     H
    H   1.0     0.687510     0.386580     0.653223  Biso 1.000000     H
    H   1.0     0.894849     0.477868     0.663104  Biso 1.000000     H
    H   1.0     0.074227     0.617905     0.611832  Biso 1.000000     H
    H   1.0     0.716723     0.522517     0.445777  Biso 1.000000     H
    H   1.0     0.902342     0.656059     0.402155  Biso 1.000000     H
    H   1.0     0.622964     0.970578     0.683724  Biso 1.000000     H
    H   1.0     0.646716     0.103170     0.684932  Biso 1.000000     H
    H   1.0     0.969126     0.106057     0.691671  Biso 1.000000     H
    H   1.0     0.883969     0.173801     0.730078  Biso 1.000000     H
    H   1.0     0.734000     0.100219     0.834923  Biso 1.000000     H
    H   1.0     0.649553     0.965082     0.940503  Biso 1.000000     H
    H   1.0     0.906132     0.912679     0.729592  Biso 1.000000     H
    H   1.0     0.818052     0.786948     0.841821  Biso 1.000000     H
    H   1.0     0.912920     0.121409     0.047620  Biso 1.000000     H
    H   1.0     0.071825     0.196446     0.850787  Biso 1.000000     H
    H   1.0     0.964578     0.212439     0.916681  Biso 1.000000     H
    H   1.0     0.102443     0.423581     0.920156  Biso 1.000000     H
    H   1.0     0.187490     0.386583     0.846735  Biso 1.000000     H
    H   1.0     0.394828     0.477872     0.836853  Biso 1.000000     H
    H   1.0     0.574236     0.617907     0.888126  Biso 1.000000     H
    H   1.0     0.216709     0.522515     0.054209  Biso 1.000000     H
    H   1.0     0.402326     0.656054     0.097830  Biso 1.000000     H
    H   1.0     0.122948     0.970576     0.816237  Biso 1.000000     H
    H   1.0     0.146699     0.103167     0.815025  Biso 1.000000     H
    H   1.0     0.469109     0.106056     0.808290  Biso 1.000000     H
    H   1.0     0.383953     0.173800     0.769880  Biso 1.000000     H
    H   1.0     0.233985     0.100220     0.665037  Biso 1.000000     H
    H   1.0     0.149546     0.965087     0.559456  Biso 1.000000     H
    H   1.0     0.406119     0.912680     0.770372  Biso 1.000000     H
    H   1.0     0.318047     0.786954     0.658142  Biso 1.000000     H
    H   1.0     0.587125     0.878579     0.547610  Biso 1.000000     H
    H   1.0     0.428189     0.803540     0.350804  Biso 1.000000     H
    H   1.0     0.535461     0.787546     0.416701  Biso 1.000000     H
    H   1.0     0.397561     0.576403     0.420169  Biso 1.000000     H
    H   1.0     0.312516     0.613407     0.346750  Biso 1.000000     H
    H   1.0     0.105177     0.522118     0.336869  Biso 1.000000     H
    H   1.0     0.925798     0.382081     0.388141  Biso 1.000000     H
    H   1.0     0.283302     0.477470     0.554196  Biso 1.000000     H
    H   1.0     0.097684     0.343928     0.597817  Biso 1.000000     H
    H   1.0     0.377061     0.029408     0.316249  Biso 1.000000     H
    H   1.0     0.353309     0.896816     0.315040  Biso 1.000000     H
    H   1.0     0.030898     0.893927     0.308303  Biso 1.000000     H
    H   1.0     0.116054     0.826184     0.269896  Biso 1.000000     H
    H   1.0     0.266024     0.899766     0.165050  Biso 1.000000     H
    H   1.0     0.350472     0.034904     0.059471  Biso 1.000000     H
    H   1.0     0.093891     0.087305     0.270382  Biso 1.000000     H
    H   1.0     0.181972     0.213037     0.158154  Biso 1.000000     H
    C   1.0     0.979277     0.908308     0.044387  Biso 1.000000     C
    C   1.0     0.929321     0.977797     0.071568  Biso 1.000000     C
    C   1.0     0.048507     0.932429     0.973405  Biso 1.000000     C
    C   1.0     0.957482     0.807360     0.085174  Biso 1.000000     C
    C   1.0     0.819702     0.595481     0.088333  Biso 1.000000     C
    C   1.0     0.710376     0.511164     0.059413  Biso 1.000000     C
    C   1.0     0.607210     0.483175     0.105650  Biso 1.000000     C
    C   1.0     0.507093     0.405722     0.076911  Biso 1.000000     C
    C   1.0     0.706694     0.459797     0.985118  Biso 1.000000     C
    C   1.0     0.602375     0.383808     0.960160  Biso 1.000000     C
    C   1.0     0.852036     0.959790     0.146178  Biso 1.000000     C
    C   1.0     0.619731     0.901042     0.209077  Biso 1.000000     C
    C   1.0     0.672008     0.981913     0.272971  Biso 1.000000     C
    C   1.0     0.746130     0.968736     0.333488  Biso 1.000000     C
    C   1.0     0.793347     0.044302     0.392584  Biso 1.000000     C
    C   1.0     0.650337     0.072418     0.275346  Biso 1.000000     C
    C   1.0     0.700239     0.143268     0.337619  Biso 1.000000     C
    C   1.0     0.520765     0.091679     0.544373  Biso 1.000000     C
    C   1.0     0.570722     0.022190     0.571553  Biso 1.000000     C
    C   1.0     0.451498     0.067553     0.473417  Biso 1.000000     C
    C   1.0     0.542558     0.192627     0.585158  Biso 1.000000     C
    C   1.0     0.680342     0.404504     0.588319  Biso 1.000000     C
    C   1.0     0.789669     0.488823     0.559399  Biso 1.000000     C
    C   1.0     0.892835     0.516809     0.605635  Biso 1.000000     C
    C   1.0     0.992952     0.594263     0.576896  Biso 1.000000     C
    C   1.0     0.793344     0.540188     0.485131  Biso 1.000000     C
    C   1.0     0.897663     0.616178     0.460172  Biso 1.000000     C
    C   1.0     0.648004     0.040197     0.646164  Biso 1.000000     C
    C   1.0     0.880311     0.098945     0.709064  Biso 1.000000     C
    C   1.0     0.828032     0.018072     0.772960  Biso 1.000000     C
    C   1.0     0.753909     0.031248     0.833476  Biso 1.000000     C
    C   1.0     0.706686     0.955679     0.892570  Biso 1.000000     C
    C   1.0     0.849701     0.927566     0.775335  Biso 1.000000     C
    C   1.0     0.799794     0.856713     0.837607  Biso 1.000000     C
    C   1.0     0.020748     0.091677     0.955585  Biso 1.000000     C
    C   1.0     0.070703     0.022187     0.928405  Biso 1.000000     C
    C   1.0     0.951518     0.067555     0.026567  Biso 1.000000     C
    C   1.0     0.042542     0.192626     0.914798  Biso 1.000000     C
    C   1.0     0.180321     0.404504     0.911640  Biso 1.000000     C
    C   1.0     0.289647     0.488821     0.940560  Biso 1.000000     C
    C   1.0     0.392814     0.516810     0.894323  Biso 1.000000     C
    C   1.0     0.492930     0.594263     0.923062  Biso 1.000000     C
    C   1.0     0.293329     0.540188     0.014854  Biso 1.000000     C
    C   1.0     0.397649     0.616177     0.039813  Biso 1.000000     C
    C   1.0     0.147987     0.040194     0.853795  Biso 1.000000     C
    C   1.0     0.380295     0.098944     0.790896  Biso 1.000000     C
    C   1.0     0.328019     0.018074     0.727000  Biso 1.000000     C
    C   1.0     0.253897     0.031251     0.666483  Biso 1.000000     C
    C   1.0     0.206678     0.955683     0.607390  Biso 1.000000     C
    C   1.0     0.349691     0.927569     0.724626  Biso 1.000000     C
    C   1.0     0.299787     0.856718     0.662354  Biso 1.000000     C
    C   1.0     0.479260     0.908307     0.455600  Biso 1.000000     C
    C   1.0     0.429302     0.977796     0.428419  Biso 1.000000     C
    C   1.0     0.548527     0.932433     0.526556  Biso 1.000000     C
    C   1.0     0.457468     0.807360     0.414815  Biso 1.000000     C
    C   1.0     0.319683     0.595482     0.411655  Biso 1.000000     C
    C   1.0     0.210356     0.511163     0.440574  Biso 1.000000     C
    C   1.0     0.107191     0.483177     0.394338  Biso 1.000000     C
    C   1.0     0.007074     0.405723     0.423077  Biso 1.000000     C
    C   1.0     0.206682     0.459798     0.514842  Biso 1.000000     C
    C   1.0     0.102362     0.383808     0.539800  Biso 1.000000     C
    C   1.0     0.352020     0.959789     0.353808  Biso 1.000000     C
    C   1.0     0.119713     0.901040     0.290909  Biso 1.000000     C
    C   1.0     0.171989     0.981911     0.227012  Biso 1.000000     C
    C   1.0     0.246113     0.968735     0.166496  Biso 1.000000     C
    C   1.0     0.293338     0.044306     0.107404  Biso 1.000000     C
    C   1.0     0.150320     0.072417     0.224637  Biso 1.000000     C
    C   1.0     0.200230     0.143272     0.162366  Biso 1.000000     C
    N   1.0     0.503326     0.356073     0.000000  Biso 1.000000     N
    N   1.0     0.771242     0.130668     0.396047  Biso 1.000000     N
    N   1.0     0.996711     0.643911     0.505232  Biso 1.000000     N
    N   1.0     0.728784     0.869310     0.896032  Biso 1.000000     N
    N   1.0     0.496698     0.643912    -0.005246  Biso 1.000000     N
    N   1.0     0.228772     0.869312     0.603932  Biso 1.000000     N
    N   1.0     0.003314     0.356075     0.494741  Biso 1.000000     N
    N   1.0     0.271251     0.130681     0.103948  Biso 1.000000     N
    O   1.0     0.671216     0.231412     0.788220  Biso 1.000000     O
    O   1.0     0.844576     0.304505     0.871543  Biso 1.000000     O
    O   1.0     0.767993     0.414635     0.798138  Biso 1.000000     O
    O   1.0     0.858435     0.316834     0.723239  Biso 1.000000     O
    O   1.0     0.828827     0.768569     0.288231  Biso 1.000000     O
    O   1.0     0.655471     0.695478     0.371560  Biso 1.000000     O
    O   1.0     0.732046     0.585346     0.298153  Biso 1.000000     O
    O   1.0     0.641605     0.683153     0.223256  Biso 1.000000     O
    O   1.0     0.328808     0.768572     0.211753  Biso 1.000000     O
    O   1.0     0.155448     0.695480     0.128431  Biso 1.000000     O
    O   1.0     0.232031     0.585349     0.201835  Biso 1.000000     O
    O   1.0     0.141590     0.683151     0.276735  Biso 1.000000     O
    O   1.0     0.171198     0.231416     0.711742  Biso 1.000000     O
    O   1.0     0.344555     0.304508     0.628413  Biso 1.000000     O
    O   1.0     0.267979     0.414639     0.701820  Biso 1.000000     O
    O   1.0     0.358420     0.316833     0.776717  Biso 1.000000     O
    S   1.0     0.841638     0.709940     0.026272  Biso 1.000000     S
    S   1.0     0.700960     0.930195     0.111423  Biso 1.000000     S
    S   1.0     0.658406     0.290049     0.526256  Biso 1.000000     S
    S   1.0     0.799082     0.069792     0.611411  Biso 1.000000     S
    S   1.0     0.158387     0.290045     0.973701  Biso 1.000000     S
    S   1.0     0.299064     0.069791     0.888549  Biso 1.000000     S
    S   1.0     0.341620     0.709938     0.473716  Biso 1.000000     S
    S   1.0     0.200942     0.930192     0.388562  Biso 1.000000     S
   Cl   1.0     0.786255     0.317531     0.795736  Biso 1.000000    Cl
   Cl   1.0     0.713787     0.682452     0.295751  Biso 1.000000    Cl
   Cl   1.0     0.213770     0.682454     0.204237  Biso 1.000000    Cl
   Cl   1.0     0.286238     0.317533     0.704222  Biso 1.000000    Cl
   Ag   1.0     0.331475     0.233813     0.966253  Biso 1.000000    Ag
   Ag   1.0     0.168534     0.766171     0.466268  Biso 1.000000    Ag
   Ag   1.0     0.668549     0.766171     0.033720  Biso 1.000000    Ag
   Ag   1.0     0.831491     0.233815     0.533705  Biso 1.000000    Ag
