#======================================================================

# CRYSTAL DATA

#----------------------------------------------------------------------

data_VESTA_phase_1


_pd_phase_name                         MOF
_cell_length_a                         14.03700
_cell_length_b                         14.06900
_cell_length_c                         16.63700
_cell_angle_alpha                      90.00400
_cell_angle_beta                       89.99600
_cell_angle_gamma                      118.67600
_symmetry_space_group_name_H-M         "P 1"
_symmetry_Int_Tables_number            1

loop_
_symmetry_equiv_pos_as_xyz
   "x, y, z"

loop_
   _atom_site_label
   _atom_site_occupancy
   _atom_site_fract_x
   _atom_site_fract_y
   _atom_site_fract_z
   _atom_site_adp_type
   _atom_site_B_iso_or_equiv
   _atom_site_type_symbol
    H   1.0     0.192584     0.524619    -0.010442  Biso 1.000000     H
    H   1.0     0.095740     0.388984     0.096384  Biso 1.000000     H
    H   1.0     0.371458     0.573313     0.251166  Biso 1.000000     H
    H   1.0     0.456977     0.699592     0.138752  Biso 1.000000     H
    H   1.0     0.088869     0.323802     0.229294  Biso 1.000000     H
    H   1.0     0.216386     0.337500     0.256464  Biso 1.000000     H
    H   1.0    -0.001877     0.415753     0.300269  Biso 1.000000     H
    H   1.0     0.100503     0.554930     0.305575  Biso 1.000000     H
    H   1.0     0.172093     0.636938     0.439120  Biso 1.000000     H
    H   1.0     0.766228     0.279611     0.433103  Biso 1.000000     H
    H   1.0     0.847826     0.323279     0.345825  Biso 1.000000     H
    H   1.0     0.729805     0.109725     0.511428  Biso 1.000000     H
    H   1.0     0.853567     0.196708     0.561896  Biso 1.000000     H
    H   1.0     0.740604     0.946205     0.426895  Biso 1.000000     H
    H   1.0     0.938883     0.107798     0.634503  Biso 1.000000     H
    H   1.0     0.974522     0.952678     0.648569  Biso 1.000000     H
    H   1.0     0.780946     0.796346     0.450540  Biso 1.000000     H
    H   1.0     0.307456     0.475388     0.489538  Biso 1.000000     H
    H   1.0     0.404327     0.611022     0.596363  Biso 1.000000     H
    H   1.0     0.128622     0.426727     0.751173  Biso 1.000000     H
    H   1.0     0.043073     0.300448     0.638758  Biso 1.000000     H
    H   1.0     0.411236     0.676193     0.729292  Biso 1.000000     H
    H   1.0     0.283737     0.662554     0.756460  Biso 1.000000     H
    H   1.0     0.501933     0.584239     0.800270  Biso 1.000000     H
    H   1.0     0.399541     0.445067     0.805573  Biso 1.000000     H
    H   1.0     0.327924     0.363070     0.939112  Biso 1.000000     H
    H   1.0     0.733801     0.720379     0.933118  Biso 1.000000     H
    H   1.0     0.652221     0.676709     0.845836  Biso 1.000000     H
    H   1.0     0.770230     0.890298     0.011430  Biso 1.000000     H
    H   1.0     0.646468     0.803316     0.061903  Biso 1.000000     H
    H   1.0     0.759434     0.053801     0.926902  Biso 1.000000     H
    H   1.0     0.561120     0.892220     0.134502  Biso 1.000000     H
    H   1.0     0.525458     0.047329     0.148559  Biso 1.000000     H
    H   1.0     0.719066     0.203649     0.950537  Biso 1.000000     H
    H   1.0     0.807426     0.475376     0.000000  Biso 1.000000     H
    H   1.0     0.904272     0.611012     0.903617  Biso 1.000000     H
    H   1.0     0.628549     0.426692     0.748837  Biso 1.000000     H
    H   1.0     0.543029     0.300412     0.861250  Biso 1.000000     H
    H   1.0     0.911142     0.676198     0.770708  Biso 1.000000     H
    H   1.0     0.783625     0.662501     0.743538  Biso 1.000000     H
    H   1.0     0.000000     0.584247     0.699733  Biso 1.000000     H
    H   1.0     0.899507     0.445071     0.694427  Biso 1.000000     H
    H   1.0     0.827917     0.363063     0.560882  Biso 1.000000     H
    H   1.0     0.233782     0.720390     0.566899  Biso 1.000000     H
    H   1.0     0.152184     0.676721     0.654177  Biso 1.000000     H
    H   1.0     0.270205     0.890275     0.488574  Biso 1.000000     H
    H   1.0     0.146442     0.803293     0.438106  Biso 1.000000     H
    H   1.0     0.259405     0.053795     0.573107  Biso 1.000000     H
    H   1.0     0.061128     0.892203     0.365498  Biso 1.000000     H
    H   1.0     0.025488     0.047323     0.351432  Biso 1.000000     H
    H   1.0     0.219064     0.203654     0.549462  Biso 1.000000     H
    H   1.0     0.692554     0.524606     0.510465  Biso 1.000000     H
    H   1.0     0.595685     0.388973     0.403639  Biso 1.000000     H
    H   1.0     0.871386     0.573278     0.248827  Biso 1.000000     H
    H   1.0     0.956933     0.699556     0.361243  Biso 1.000000     H
    H   1.0     0.588775     0.323807     0.270708  Biso 1.000000     H
    H   1.0     0.716274     0.337447     0.243541  Biso 1.000000     H
    H   1.0     0.498078     0.415762     0.199731  Biso 1.000000     H
    H   1.0     0.600470     0.554934     0.194428  Biso 1.000000     H
    H   1.0     0.672086     0.636931     0.060890  Biso 1.000000     H
    H   1.0     0.266209     0.279622     0.066883  Biso 1.000000     H
    H   1.0     0.347790     0.323292     0.154165  Biso 1.000000     H
    H   1.0     0.229779     0.109703     0.988571  Biso 1.000000     H
    H   1.0     0.353542     0.196685     0.938098  Biso 1.000000     H
    H   1.0     0.240576     0.946200     0.073099  Biso 1.000000     H
    H   1.0     0.438890     0.107781     0.865499  Biso 1.000000     H
    H   1.0     0.474552     0.952672     0.851442  Biso 1.000000     H
    H   1.0     0.280944     0.796352     0.049464  Biso 1.000000     H
    C   1.0     0.229982     0.532887     0.048419  Biso 1.000000     C
    C   1.0     0.176125     0.456845     0.108357  Biso 1.000000     C
    C   1.0     0.226287     0.468022     0.183039  Biso 1.000000     C
    C   1.0     0.328898     0.557676     0.193879  Biso 1.000000     C
    C   1.0     0.376963     0.630069     0.130775  Biso 1.000000     C
    C   1.0     0.171849     0.383180     0.247093  Biso 1.000000     C
    C   1.0     0.063820     0.476846     0.337040  Biso 1.000000     C
    C   1.0     0.026945     0.486771     0.420127  Biso 1.000000     C
    C   1.0     0.928377     0.408247     0.454683  Biso 1.000000     C
    C   1.0     0.096214     0.576679     0.466359  Biso 1.000000     C
    C   1.0     0.849166     0.308690     0.410514  Biso 1.000000     C
    C   1.0     0.817098     0.135651     0.514576  Biso 1.000000     C
    C   1.0     0.836201     0.040729     0.529230  Biso 1.000000     C
    C   1.0     0.791050     0.950692     0.478040  Biso 1.000000     C
    C   1.0     0.902447     0.040799     0.592061  Biso 1.000000     C
    C   1.0     0.921404     0.952930     0.600872  Biso 1.000000     C
    C   1.0     0.813643     0.865979     0.490812  Biso 1.000000     C
    C   1.0     0.270067     0.467126     0.548405  Biso 1.000000     C
    C   1.0     0.323938     0.543170     0.608342  Biso 1.000000     C
    C   1.0     0.273789     0.532000     0.683033  Biso 1.000000     C
    C   1.0     0.171171     0.442358     0.693879  Biso 1.000000     C
    C   1.0     0.123092     0.369963     0.630775  Biso 1.000000     C
    C   1.0     0.328244     0.616841     0.747089  Biso 1.000000     C
    C   1.0     0.436227     0.523153     0.837039  Biso 1.000000     C
    C   1.0     0.473079     0.513233     0.920129  Biso 1.000000     C
    C   1.0     0.571649     0.591747     0.954686  Biso 1.000000     C
    C   1.0     0.403804     0.423321     0.966353  Biso 1.000000     C
    C   1.0     0.650869     0.691306     0.910525  Biso 1.000000     C
    C   1.0     0.682935     0.864365     0.014580  Biso 1.000000     C
    C   1.0     0.663823     0.959284     0.029234  Biso 1.000000     C
    C   1.0     0.708974     0.049314     0.978042  Biso 1.000000     C
    C   1.0     0.597558     0.959214     0.092058  Biso 1.000000     C
    C   1.0     0.578591     0.047078     0.100866  Biso 1.000000     C
    C   1.0     0.686369     0.134023     0.990811  Biso 1.000000     C
    C   1.0     0.770028     0.467110     0.951581  Biso 1.000000     C
    C   1.0     0.823886     0.543152     0.891643  Biso 1.000000     C
    C   1.0     0.773723     0.531979     0.816963  Biso 1.000000     C
    C   1.0     0.671110     0.442326     0.806123  Biso 1.000000     C
    C   1.0     0.623044     0.369934     0.869227  Biso 1.000000     C
    C   1.0     0.828162     0.616820     0.752910  Biso 1.000000     C
    C   1.0     0.936190     0.523155     0.662962  Biso 1.000000     C
    C   1.0     0.973065     0.513230     0.579875  Biso 1.000000     C
    C   1.0     0.071633     0.591753     0.545319  Biso 1.000000     C
    C   1.0     0.903796     0.423322     0.533643  Biso 1.000000     C
    C   1.0     0.150844     0.691311     0.589488  Biso 1.000000     C
    C   1.0     0.182911     0.864350     0.485426  Biso 1.000000     C
    C   1.0     0.163808     0.959272     0.470772  Biso 1.000000     C
    C   1.0     0.208960     0.049309     0.521962  Biso 1.000000     C
    C   1.0     0.097563     0.959202     0.407941  Biso 1.000000     C
    C   1.0     0.078606     0.047070     0.399130  Biso 1.000000     C
    C   1.0     0.186366     0.134021     0.509190  Biso 1.000000     C
    C   1.0     0.729943     0.532870     0.451597  Biso 1.000000     C
    C   1.0     0.676072     0.456828     0.391659  Biso 1.000000     C
    C   1.0     0.726221     0.467999     0.316968  Biso 1.000000     C
    C   1.0     0.828837     0.557645     0.306122  Biso 1.000000     C
    C   1.0     0.876916     0.630038     0.369226  Biso 1.000000     C
    C   1.0     0.671767     0.383159     0.252912  Biso 1.000000     C
    C   1.0     0.563784     0.476848     0.162962  Biso 1.000000     C
    C   1.0     0.526931     0.486768     0.079872  Biso 1.000000     C
    C   1.0     0.428361     0.408254     0.045315  Biso 1.000000     C
    C   1.0     0.596207     0.576680     0.033648  Biso 1.000000     C
    C   1.0     0.349141     0.308695     0.089476  Biso 1.000000     C
    C   1.0     0.317074     0.135636     0.985421  Biso 1.000000     C
    C   1.0     0.336188     0.040717     0.970768  Biso 1.000000     C
    C   1.0     0.291035     0.950685     0.021958  Biso 1.000000     C
    C   1.0     0.402451     0.040787     0.907943  Biso 1.000000     C
    C   1.0     0.421420     0.952923     0.899136  Biso 1.000000     C
    C   1.0     0.313641     0.865978     0.009190  Biso 1.000000     C
    N   1.0     0.329569     0.618481     0.058297  Biso 1.000000     N
    N   1.0     0.878049     0.866152     0.551317  Biso 1.000000     N
    N   1.0     0.170475     0.381543     0.558289  Biso 1.000000     N
    N   1.0     0.621945     0.133848     0.051308  Biso 1.000000     N
    N   1.0     0.670439     0.381519     0.941704  Biso 1.000000     N
    N   1.0     0.121961     0.133849     0.448685  Biso 1.000000     N
    N   1.0     0.829534     0.618456     0.441712  Biso 1.000000     N
    N   1.0     0.378064     0.866152     0.948692  Biso 1.000000     N
    F   1.0     0.774217     0.725941     0.187381  Biso 1.000000     F
    F   1.0     0.700446     0.869987     0.302014  Biso 1.000000     F
    F   1.0     0.858136     0.854230     0.288397  Biso 1.000000     F
    F   1.0     0.783420     0.895376     0.177310  Biso 1.000000     F
    F   1.0     0.691726     0.700708     0.312402  Biso 1.000000     F
    F   1.0     0.617209     0.741624     0.201258  Biso 1.000000     F
    F   1.0     0.725796     0.274055     0.687386  Biso 1.000000     F
    F   1.0     0.799557     0.130022     0.802017  Biso 1.000000     F
    F   1.0     0.641868     0.145778     0.788400  Biso 1.000000     F
    F   1.0     0.716586     0.104619     0.677306  Biso 1.000000     F
    F   1.0     0.808274     0.299298     0.812400  Biso 1.000000     F
    F   1.0     0.882803     0.258380     0.701259  Biso 1.000000     F
    F   1.0     0.225787     0.274060     0.812620  Biso 1.000000     F
    F   1.0     0.299557     0.130013     0.697986  Biso 1.000000     F
    F   1.0     0.141871     0.145774     0.711607  Biso 1.000000     F
    F   1.0     0.216583     0.104627     0.822691  Biso 1.000000     F
    F   1.0     0.308276     0.299294     0.687599  Biso 1.000000     F
    F   1.0     0.382798     0.258380     0.798747  Biso 1.000000     F
    F   1.0     0.274211     0.725950     0.312619  Biso 1.000000     F
    F   1.0     0.200451     0.869983     0.197987  Biso 1.000000     F
    F   1.0     0.358136     0.854228     0.211604  Biso 1.000000     F
    F   1.0     0.283418     0.895382     0.322691  Biso 1.000000     F
    F   1.0     0.191731     0.700703     0.187597  Biso 1.000000     F
    F   1.0     0.117203     0.741626     0.298747  Biso 1.000000     F
    P   1.0     0.738670     0.799058     0.245269  Biso 1.000000     P
    P   1.0     0.761337     0.200940     0.745268  Biso 1.000000     P
    P   1.0     0.261339     0.200945     0.754733  Biso 1.000000     P
    P   1.0     0.238665     0.799057     0.254732  Biso 1.000000     P
    S   1.0     0.168836     0.434403     0.347251  Biso 1.000000     S
    S   1.0     0.876768     0.193403     0.416401  Biso 1.000000     S
    S   1.0     0.331221     0.565613     0.847245  Biso 1.000000     S
    S   1.0     0.623272     0.806598     0.916409  Biso 1.000000     S
    S   1.0     0.831174     0.565598     0.652751  Biso 1.000000     S
    S   1.0     0.123242     0.806598     0.583601  Biso 1.000000     S
    S   1.0     0.668789     0.434388     0.152755  Biso 1.000000     S
    S   1.0     0.376737     0.193403     0.083592  Biso 1.000000     S
   Ag   1.0     0.420185     0.728438     0.942402  Biso 1.000000    Ag
   Ag   1.0     0.079855     0.271572     0.442392  Biso 1.000000    Ag
   Ag   1.0     0.579824     0.271562     0.057599  Biso 1.000000    Ag
   Ag   1.0     0.920154     0.728428     0.557610  Biso 1.000000    Ag
