#======================================================================

# CRYSTAL DATA

#----------------------------------------------------------------------

data_VESTA_phase_1


_pd_phase_name                         MOF
_cell_length_a                         21.87500
_cell_length_b                         13.46300
_cell_length_c                         15.13000
_cell_angle_alpha                      89.94400
_cell_angle_beta                       105.41600
_cell_angle_gamma                      89.98700
_symmetry_space_group_name_H-M         "P 1"
_symmetry_Int_Tables_number            1

loop_
_symmetry_equiv_pos_as_xyz
   "x, y, z"

loop_
   _atom_site_label
   _atom_site_occupancy
   _atom_site_fract_x
   _atom_site_fract_y
   _atom_site_fract_z
   _atom_site_adp_type
   _atom_site_B_iso_or_equiv
   _atom_site_type_symbol
    H   1.0     0.239406     0.839084     0.347352  Biso 1.000000     H
    H   1.0     0.738530     0.839001     0.347649  Biso 1.000000     H
    H   1.0     0.381161     0.058271     0.422575  Biso 1.000000     H
    H   1.0     0.880862     0.057309     0.422808  Biso 1.000000     H
    H   1.0     0.282988     0.133431     0.282428  Biso 1.000000     H
    H   1.0     0.783064     0.132645     0.282147  Biso 1.000000     H
    H   1.0     0.183035     0.844845     0.181588  Biso 1.000000     H
    H   1.0     0.682602     0.844412     0.181874  Biso 1.000000     H
    H   1.0     0.079735     0.862965     0.062727  Biso 1.000000     H
    H   1.0     0.579326     0.862696     0.062892  Biso 1.000000     H
    H   1.0     0.071687     0.170733     0.135244  Biso 1.000000     H
    H   1.0     0.571716     0.170714     0.134840  Biso 1.000000     H
    H   1.0     0.172589     0.151903     0.257443  Biso 1.000000     H
    H   1.0     0.672589     0.151758     0.257154  Biso 1.000000     H
    H   1.0     0.010928     0.701475     0.354996  Biso 1.000000     H
    H   1.0     0.511776     0.700795     0.355251  Biso 1.000000     H
    H   1.0     0.050070     0.624716     0.229570  Biso 1.000000     H
    H   1.0     0.550605     0.623799     0.229578  Biso 1.000000     H
    H   1.0     0.360355     0.527769     0.098324  Biso 1.000000     H
    H   1.0     0.860187     0.527017     0.098379  Biso 1.000000     H
    H   1.0     0.323027     0.603924     0.224671  Biso 1.000000     H
    H   1.0     0.822546     0.603017     0.224431  Biso 1.000000     H
    H   1.0     0.464012     0.364618     0.176874  Biso 1.000000     H
    H   1.0     0.964748     0.364493     0.177297  Biso 1.000000     H
    H   1.0     0.457415     0.279809     0.084283  Biso 1.000000     H
    H   1.0     0.957991     0.279727     0.084637  Biso 1.000000     H
    H   1.0     0.393434     0.360088     0.087050  Biso 1.000000     H
    H   1.0     0.893981     0.359763     0.087833  Biso 1.000000     H
    H   1.0     0.010083     0.676278     0.045319  Biso 1.000000     H
    H   1.0     0.510655     0.676024     0.045720  Biso 1.000000     H
    H   1.0     0.011041     0.838947     0.652091  Biso 1.000000     H
    H   1.0     0.512027     0.839556     0.652522  Biso 1.000000     H
    H   1.0     0.369386     0.057648     0.577338  Biso 1.000000     H
    H   1.0     0.868488     0.057224     0.577533  Biso 1.000000     H
    H   1.0     0.467014     0.132823     0.718072  Biso 1.000000     H
    H   1.0     0.966540     0.132477     0.717637  Biso 1.000000     H
    H   1.0     0.067374     0.844132     0.817668  Biso 1.000000     H
    H   1.0     0.567942     0.844505     0.818277  Biso 1.000000     H
    H   1.0     0.170713     0.862346     0.936417  Biso 1.000000     H
    H   1.0     0.671104     0.862707     0.937418  Biso 1.000000     H
    H   1.0     0.177965     0.170500     0.864174  Biso 1.000000     H
    H   1.0     0.678207     0.171103     0.865921  Biso 1.000000     H
    H   1.0     0.077007     0.151599     0.742088  Biso 1.000000     H
    H   1.0     0.577416     0.152281     0.743528  Biso 1.000000     H
    H   1.0     0.239430     0.701858     0.644355  Biso 1.000000     H
    H   1.0     0.738688     0.701088     0.645208  Biso 1.000000     H
    H   1.0     0.200080     0.625092     0.769736  Biso 1.000000     H
    H   1.0     0.699641     0.624146     0.770764  Biso 1.000000     H
    H   1.0     0.389942     0.527481     0.901763  Biso 1.000000     H
    H   1.0     0.889625     0.526447     0.901955  Biso 1.000000     H
    H   1.0     0.427773     0.603410     0.775693  Biso 1.000000     H
    H   1.0     0.927171     0.602625     0.775786  Biso 1.000000     H
    H   1.0     0.285773     0.365085     0.822913  Biso 1.000000     H
    H   1.0     0.785805     0.364039     0.823808  Biso 1.000000     H
    H   1.0     0.292363     0.280252     0.915633  Biso 1.000000     H
    H   1.0     0.792263     0.279201     0.916513  Biso 1.000000     H
    H   1.0     0.356422     0.360210     0.912593  Biso 1.000000     H
    H   1.0     0.856353     0.359166     0.913676  Biso 1.000000     H
    H   1.0     0.239721     0.676729     0.953768  Biso 1.000000     H
    H   1.0     0.739466     0.675631     0.954576  Biso 1.000000     H
    H   1.0     0.261445     0.160959     0.652412  Biso 1.000000     H
    H   1.0     0.760652     0.160931     0.652643  Biso 1.000000     H
    H   1.0     0.119073     0.942719     0.577222  Biso 1.000000     H
    H   1.0     0.618955     0.941640     0.577545  Biso 1.000000     H
    H   1.0     0.216879     0.867301     0.717828  Biso 1.000000     H
    H   1.0     0.717155     0.866594     0.717715  Biso 1.000000     H
    H   1.0     0.317392     0.155494     0.818138  Biso 1.000000     H
    H   1.0     0.817059     0.155254     0.818430  Biso 1.000000     H
    H   1.0     0.420679     0.137167     0.937087  Biso 1.000000     H
    H   1.0     0.920348     0.137178     0.937319  Biso 1.000000     H
    H   1.0     0.428234     0.829153     0.865097  Biso 1.000000     H
    H   1.0     0.928424     0.829384     0.864910  Biso 1.000000     H
    H   1.0     0.327351     0.848153     0.742809  Biso 1.000000     H
    H   1.0     0.827532     0.848166     0.742683  Biso 1.000000     H
    H   1.0     0.488195     0.298967     0.644771  Biso 1.000000     H
    H   1.0     0.989086     0.298574     0.645119  Biso 1.000000     H
    H   1.0     0.449373     0.375929     0.770468  Biso 1.000000     H
    H   1.0     0.949948     0.375273     0.770572  Biso 1.000000     H
    H   1.0     0.139837     0.472893     0.901815  Biso 1.000000     H
    H   1.0     0.639625     0.471971     0.901709  Biso 1.000000     H
    H   1.0     0.177477     0.396947     0.775742  Biso 1.000000     H
    H   1.0     0.676946     0.395840     0.775342  Biso 1.000000     H
    H   1.0     0.035271     0.635465     0.822890  Biso 1.000000     H
    H   1.0     0.535976     0.635093     0.823152  Biso 1.000000     H
    H   1.0     0.042043     0.720214     0.915565  Biso 1.000000     H
    H   1.0     0.542544     0.719925     0.915718  Biso 1.000000     H
    H   1.0     0.106043     0.640167     0.912345  Biso 1.000000     H
    H   1.0     0.606542     0.639666     0.912993  Biso 1.000000     H
    H   1.0     0.489323     0.323710     0.954311  Biso 1.000000     H
    H   1.0     0.989942     0.323658     0.954864  Biso 1.000000     H
    H   1.0     0.488039     0.160236     0.347471  Biso 1.000000     H
    H   1.0     0.988934     0.161028     0.348014  Biso 1.000000     H
    H   1.0     0.131594     0.942907     0.422496  Biso 1.000000     H
    H   1.0     0.630667     0.942140     0.422799  Biso 1.000000     H
    H   1.0     0.033572     0.867608     0.282362  Biso 1.000000     H
    H   1.0     0.533039     0.866894     0.282107  Biso 1.000000     H
    H   1.0     0.432152     0.155221     0.181771  Biso 1.000000     H
    H   1.0     0.932653     0.155808     0.182318  Biso 1.000000     H
    H   1.0     0.328991     0.137046     0.062627  Biso 1.000000     H
    H   1.0     0.829318     0.137495     0.063568  Biso 1.000000     H
    H   1.0     0.321836     0.828668     0.134156  Biso 1.000000     H
    H   1.0     0.822112     0.829392     0.136007  Biso 1.000000     H
    H   1.0     0.422623     0.847472     0.256558  Biso 1.000000     H
    H   1.0     0.923068     0.848401     0.258092  Biso 1.000000     H
    H   1.0     0.261357     0.298960     0.354926  Biso 1.000000     H
    H   1.0     0.760536     0.298081     0.355689  Biso 1.000000     H
    H   1.0     0.300407     0.375894     0.229368  Biso 1.000000     H
    H   1.0     0.799902     0.374827     0.230311  Biso 1.000000     H
    H   1.0     0.110424     0.473595     0.098170  Biso 1.000000     H
    H   1.0     0.610034     0.472325     0.098180  Biso 1.000000     H
    H   1.0     0.072875     0.397418     0.224337  Biso 1.000000     H
    H   1.0     0.572186     0.396415     0.224247  Biso 1.000000     H
    H   1.0     0.214329     0.636014     0.176277  Biso 1.000000     H
    H   1.0     0.714150     0.634722     0.177149  Biso 1.000000     H
    H   1.0     0.207809     0.720797     0.083518  Biso 1.000000     H
    H   1.0     0.707615     0.719624     0.084493  Biso 1.000000     H
    H   1.0     0.143737     0.640847     0.086485  Biso 1.000000     H
    H   1.0     0.643534     0.639658     0.087414  Biso 1.000000     H
    H   1.0     0.260521     0.324317     0.045520  Biso 1.000000     H
    H   1.0     0.760320     0.323199     0.046263  Biso 1.000000     H
    C   1.0     0.264477     0.908861     0.350236  Biso 1.000000     C
    C   1.0     0.763805     0.908579     0.350463  Biso 1.000000     C
    C   1.0     0.336418     0.024581     0.387029  Biso 1.000000     C
    C   1.0     0.836054     0.023866     0.387202  Biso 1.000000     C
    C   1.0     0.288596     0.062908     0.317980  Biso 1.000000     C
    C   1.0     0.788426     0.062268     0.317924  Biso 1.000000     C
    C   1.0     0.183910     0.997542     0.226423  Biso 1.000000     C
    C   1.0     0.683643     0.997265     0.226360  Biso 1.000000     C
    C   1.0     0.157777     0.915440     0.172377  Biso 1.000000     C
    C   1.0     0.657438     0.915093     0.172485  Biso 1.000000     C
    C   1.0     0.100603     0.925492     0.105786  Biso 1.000000     C
    C   1.0     0.600306     0.925224     0.105861  Biso 1.000000     C
    C   1.0     0.069297     0.018024     0.091577  Biso 1.000000     C
    C   1.0     0.569170     0.017881     0.091504  Biso 1.000000     C
    C   1.0     0.096124     0.099416     0.146180  Biso 1.000000     C
    C   1.0     0.596066     0.099332     0.145941  Biso 1.000000     C
    C   1.0     0.152917     0.089330     0.213729  Biso 1.000000     C
    C   1.0     0.652822     0.089173     0.213524  Biso 1.000000     C
    C   1.0     0.389032     0.711684     0.366179  Biso 1.000000     C
    C   1.0     0.888101     0.711447     0.365919  Biso 1.000000     C
    C   1.0     0.414690     0.659044     0.296209  Biso 1.000000     C
    C   1.0     0.913977     0.658997     0.295994  Biso 1.000000     C
    C   1.0     0.479061     0.663479     0.297931  Biso 1.000000     C
    C   1.0     0.978342     0.663889     0.297725  Biso 1.000000     C
    C   1.0    -0.000134     0.621266     0.227557  Biso 1.000000     C
    C   1.0     0.500407     0.620763     0.227656  Biso 1.000000     C
    C   1.0     0.457984     0.571785     0.154491  Biso 1.000000     C
    C   1.0     0.957675     0.571859     0.154432  Biso 1.000000     C
    C   1.0     0.393972     0.564764     0.154784  Biso 1.000000     C
    C   1.0     0.893678     0.564360     0.154741  Biso 1.000000     C
    C   1.0     0.372703     0.607934     0.224619  Biso 1.000000     C
    C   1.0     0.872220     0.607463     0.224455  Biso 1.000000     C
    C   1.0     0.479535     0.532075     0.076410  Biso 1.000000     C
    C   1.0     0.979422     0.532175     0.076445  Biso 1.000000     C
    C   1.0     0.472253     0.431251     0.049997  Biso 1.000000     C
    C   1.0     0.972506     0.431255     0.050237  Biso 1.000000     C
    C   1.0     0.445402     0.354989     0.102406  Biso 1.000000     C
    C   1.0     0.945941     0.354848     0.102858  Biso 1.000000     C
    C   1.0     0.006754     0.597950     0.025846  Biso 1.000000     C
    C   1.0     0.507074     0.597767     0.026007  Biso 1.000000     C
    C   1.0     0.486642     0.909054     0.649704  Biso 1.000000     C
    C   1.0     0.985742     0.908508     0.649363  Biso 1.000000     C
    C   1.0     0.414234     0.024217     0.612952  Biso 1.000000     C
    C   1.0     0.913386     0.023776     0.612910  Biso 1.000000     C
    C   1.0     0.461774     0.062532     0.682299  Biso 1.000000     C
    C   1.0     0.961139     0.062138     0.681927  Biso 1.000000     C
    C   1.0     0.066093     0.997078     0.773095  Biso 1.000000     C
    C   1.0     0.566613     0.997568     0.774009  Biso 1.000000     C
    C   1.0     0.092456     0.914844     0.826957  Biso 1.000000     C
    C   1.0     0.592955     0.915278     0.827814  Biso 1.000000     C
    C   1.0     0.149636     0.924939     0.893460  Biso 1.000000     C
    C   1.0     0.650036     0.925361     0.894541  Biso 1.000000     C
    C   1.0     0.180694     0.017617     0.907726  Biso 1.000000     C
    C   1.0     0.681016     0.018092     0.909086  Biso 1.000000     C
    C   1.0     0.153681     0.099101     0.853218  Biso 1.000000     C
    C   1.0     0.653990     0.099657     0.854707  Biso 1.000000     C
    C   1.0     0.096868     0.088982     0.785760  Biso 1.000000     C
    C   1.0     0.597278     0.089560     0.787052  Biso 1.000000     C
    C   1.0     0.362342     0.711760     0.633930  Biso 1.000000     C
    C   1.0     0.861463     0.711250     0.634227  Biso 1.000000     C
    C   1.0     0.336360     0.659320     0.703779  Biso 1.000000     C
    C   1.0     0.835682     0.658645     0.704227  Biso 1.000000     C
    C   1.0     0.271952     0.664246     0.701782  Biso 1.000000     C
    C   1.0     0.771318     0.663474     0.702520  Biso 1.000000     C
    C   1.0     0.250314     0.621652     0.771915  Biso 1.000000     C
    C   1.0     0.749841     0.620744     0.772744  Biso 1.000000     C
    C   1.0     0.292469     0.572292     0.845243  Biso 1.000000     C
    C   1.0     0.792105     0.571285     0.845897  Biso 1.000000     C
    C   1.0     0.356514     0.564785     0.845209  Biso 1.000000     C
    C   1.0     0.856097     0.563824     0.845557  Biso 1.000000     C
    C   1.0     0.378071     0.607829     0.775517  Biso 1.000000     C
    C   1.0     0.877499     0.607037     0.775783  Biso 1.000000     C
    C   1.0     0.270670     0.532651     0.923223  Biso 1.000000     C
    C   1.0     0.770432     0.531579     0.923975  Biso 1.000000     C
    C   1.0     0.277773     0.431784     0.949766  Biso 1.000000     C
    C   1.0     0.777586     0.430718     0.950547  Biso 1.000000     C
    C   1.0     0.304454     0.355371     0.897382  Biso 1.000000     C
    C   1.0     0.804377     0.354320     0.898291  Biso 1.000000     C
    C   1.0     0.243185     0.598442     0.973537  Biso 1.000000     C
    C   1.0     0.742941     0.597338     0.974321  Biso 1.000000     C
    C   1.0     0.236160     0.091389     0.649584  Biso 1.000000     C
    C   1.0     0.735600     0.091141     0.649794  Biso 1.000000     C
    C   1.0     0.163890     0.976136     0.612828  Biso 1.000000     C
    C   1.0     0.663690     0.975369     0.613067  Biso 1.000000     C
    C   1.0     0.211521     0.937693     0.682076  Biso 1.000000     C
    C   1.0     0.711525     0.937097     0.682127  Biso 1.000000     C
    C   1.0     0.316323     0.002644     0.773633  Biso 1.000000     C
    C   1.0     0.816194     0.002539     0.773648  Biso 1.000000     C
    C   1.0     0.342546     0.084804     0.827510  Biso 1.000000     C
    C   1.0     0.842319     0.084661     0.827672  Biso 1.000000     C
    C   1.0     0.399684     0.074651     0.894116  Biso 1.000000     C
    C   1.0     0.899487     0.074634     0.894279  Biso 1.000000     C
    C   1.0     0.430807     0.981982     0.908454  Biso 1.000000     C
    C   1.0     0.930798     0.982107     0.908526  Biso 1.000000     C
    C   1.0     0.403894     0.900544     0.854014  Biso 1.000000     C
    C   1.0     0.903982     0.900696     0.853943  Biso 1.000000     C
    C   1.0     0.347132     0.910726     0.786446  Biso 1.000000     C
    C   1.0     0.847194     0.910757     0.786379  Biso 1.000000     C
    C   1.0     0.111912     0.288580     0.634188  Biso 1.000000     C
    C   1.0     0.610935     0.288156     0.633808  Biso 1.000000     C
    C   1.0     0.086042     0.341002     0.704143  Biso 1.000000     C
    C   1.0     0.585279     0.340738     0.703805  Biso 1.000000     C
    C   1.0     0.021677     0.336122     0.702411  Biso 1.000000     C
    C   1.0     0.520911     0.336281     0.702091  Biso 1.000000     C
    C   1.0     0.499570     0.378976     0.772380  Biso 1.000000     C
    C   1.0     0.000000     0.378715     0.772593  Biso 1.000000     C
    C   1.0     0.042346     0.428087     0.845741  Biso 1.000000     C
    C   1.0     0.541994     0.427955     0.845542  Biso 1.000000     C
    C   1.0     0.106345     0.435574     0.845437  Biso 1.000000     C
    C   1.0     0.606006     0.434981     0.845249  Biso 1.000000     C
    C   1.0     0.127801     0.392500     0.775709  Biso 1.000000     C
    C   1.0     0.627271     0.391830     0.775402  Biso 1.000000     C
    C   1.0     0.020601     0.467762     0.923734  Biso 1.000000     C
    C   1.0     0.520442     0.467660     0.923623  Biso 1.000000     C
    C   1.0     0.027517     0.568682     0.949944  Biso 1.000000     C
    C   1.0     0.527723     0.568484     0.950032  Biso 1.000000     C
    C   1.0     0.054084     0.645094     0.897329  Biso 1.000000     C
    C   1.0     0.554572     0.644745     0.897619  Biso 1.000000     C
    C   1.0     0.492902     0.401968     0.974023  Biso 1.000000     C
    C   1.0     0.993269     0.401987     0.974334  Biso 1.000000     C
    C   1.0     0.014268     0.091502     0.350719  Biso 1.000000     C
    C   1.0     0.513420     0.090728     0.350332  Biso 1.000000     C
    C   1.0     0.086679     0.976311     0.387130  Biso 1.000000     C
    C   1.0     0.585822     0.975564     0.387161  Biso 1.000000     C
    C   1.0     0.038943     0.937927     0.318103  Biso 1.000000     C
    C   1.0     0.538282     0.937216     0.317833  Biso 1.000000     C
    C   1.0     0.433452     0.002171     0.226061  Biso 1.000000     C
    C   1.0     0.933953     0.002893     0.226977  Biso 1.000000     C
    C   1.0     0.407127     0.084460     0.172240  Biso 1.000000     C
    C   1.0     0.907580     0.085089     0.173069  Biso 1.000000     C
    C   1.0     0.350047     0.074391     0.105512  Biso 1.000000     C
    C   1.0     0.850404     0.074939     0.106569  Biso 1.000000     C
    C   1.0     0.319049     0.981674     0.090975  Biso 1.000000     C
    C   1.0     0.819365     0.982245     0.092359  Biso 1.000000     C
    C   1.0     0.346062     0.900107     0.145362  Biso 1.000000     C
    C   1.0     0.846386     0.900801     0.146919  Biso 1.000000     C
    C   1.0     0.402774     0.910191     0.213023  Biso 1.000000     C
    C   1.0     0.903194     0.910977     0.214373  Biso 1.000000     C
    C   1.0     0.138568     0.288765     0.365865  Biso 1.000000     C
    C   1.0     0.637622     0.288150     0.366066  Biso 1.000000     C
    C   1.0     0.164362     0.341392     0.295894  Biso 1.000000     C
    C   1.0     0.663604     0.340574     0.296212  Biso 1.000000     C
    C   1.0     0.228728     0.336569     0.297610  Biso 1.000000     C
    C   1.0     0.728019     0.335668     0.298242  Biso 1.000000     C
    C   1.0     0.250206     0.379293     0.227384  Biso 1.000000     C
    C   1.0     0.749665     0.378249     0.228111  Biso 1.000000     C
    C   1.0     0.207940     0.428731     0.154219  Biso 1.000000     C
    C   1.0     0.707512     0.427583     0.154764  Biso 1.000000     C
    C   1.0     0.143950     0.436213     0.154566  Biso 1.000000     C
    C   1.0     0.643459     0.435053     0.154757  Biso 1.000000     C
    C   1.0     0.122547     0.393006     0.224340  Biso 1.000000     C
    C   1.0     0.621893     0.392020     0.224444  Biso 1.000000     C
    C   1.0     0.229606     0.468404     0.076122  Biso 1.000000     C
    C   1.0     0.729323     0.467243     0.076805  Biso 1.000000     C
    C   1.0     0.222458     0.569256     0.049521  Biso 1.000000     C
    C   1.0     0.722217     0.568119     0.050296  Biso 1.000000     C
    C   1.0     0.195710     0.645691     0.101796  Biso 1.000000     C
    C   1.0     0.695505     0.644491     0.102681  Biso 1.000000     C
    C   1.0     0.257061     0.402607     0.025764  Biso 1.000000     C
    C   1.0     0.756843     0.401490     0.026505  Biso 1.000000     C
    N   1.0     0.320661     0.929042     0.407270  Biso 1.000000     N
    N   1.0     0.819968     0.928571     0.407602  Biso 1.000000     N
    N   1.0     0.242828     0.988804     0.294491  Biso 1.000000     N
    N   1.0     0.742483     0.988428     0.294496  Biso 1.000000     N
    N   1.0     0.011715     0.037491     0.024881  Biso 1.000000     N
    N   1.0     0.511650     0.037365     0.024774  Biso 1.000000     N
    N   1.0     0.430467     0.929049     0.592503  Biso 1.000000     N
    N   1.0     0.929457     0.928515     0.592481  Biso 1.000000     N
    N   1.0     0.007147     0.988307     0.705179  Biso 1.000000     N
    N   1.0     0.507824     0.988772     0.705751  Biso 1.000000     N
    N   1.0     0.238199     0.037102     0.974463  Biso 1.000000     N
    N   1.0     0.738476     0.037579     0.975902  Biso 1.000000     N
    N   1.0     0.179987     0.071434     0.592457  Biso 1.000000     N
    N   1.0     0.679417     0.070908     0.592777  Biso 1.000000     N
    N   1.0     0.257478     0.011512     0.705514  Biso 1.000000     N
    N   1.0     0.757275     0.011233     0.705575  Biso 1.000000     N
    N   1.0     0.488330     0.962486     0.975177  Biso 1.000000     N
    N   1.0     0.988377     0.962654     0.975231  Biso 1.000000     N
    N   1.0     0.070562     0.071534     0.407591  Biso 1.000000     N
    N   1.0     0.569592     0.070756     0.407549  Biso 1.000000     N
    N   1.0     0.492235     0.010975     0.294331  Biso 1.000000     N
    N   1.0     0.992901     0.011709     0.294880  Biso 1.000000     N
    N   1.0     0.261581     0.962214     0.024161  Biso 1.000000     N
    N   1.0     0.761867     0.962712     0.025623  Biso 1.000000     N
    O   1.0     0.331403     0.704984     0.363246  Biso 1.000000     O
    O   1.0     0.830455     0.704521     0.362813  Biso 1.000000     O
    O   1.0     0.429132     0.766341     0.425472  Biso 1.000000     O
    O   1.0     0.928034     0.766123     0.425404  Biso 1.000000     O
    O   1.0     0.420002     0.704722     0.637152  Biso 1.000000     O
    O   1.0     0.919111     0.704452     0.637272  Biso 1.000000     O
    O   1.0     0.322462     0.766551     0.574369  Biso 1.000000     O
    O   1.0     0.821433     0.765948     0.574733  Biso 1.000000     O
    O   1.0     0.169558     0.295500     0.637290  Biso 1.000000     O
    O   1.0     0.668566     0.294867     0.636751  Biso 1.000000     O
    O   1.0     0.071973     0.233933     0.574684  Biso 1.000000     O
    O   1.0     0.570840     0.233538     0.574478  Biso 1.000000     O
    O   1.0     0.080917     0.295563     0.362801  Biso 1.000000     O
    O   1.0     0.579955     0.295142     0.362812  Biso 1.000000     O
    O   1.0     0.178589     0.234057     0.425361  Biso 1.000000     O
    O   1.0     0.677519     0.233409     0.425653  Biso 1.000000     O
   Zn   1.0     0.375873     0.825896     0.499944  Biso 1.000000    Zn
   Zn   1.0     0.874701     0.825402     0.500042  Biso 1.000000    Zn
   Zn   1.0     0.125292     0.174628     0.500022  Biso 1.000000    Zn
   Zn   1.0     0.624143     0.173988     0.500071  Biso 1.000000    Zn
