#======================================================================

# CRYSTAL DATA

#----------------------------------------------------------------------

data_VESTA_phase_1


_pd_phase_name                         MOF
_cell_length_a                         13.64200
_cell_length_b                         14.78800
_cell_length_c                         15.13700
_cell_angle_alpha                      90.00000
_cell_angle_beta                       90.00100
_cell_angle_gamma                      90.00000
_symmetry_space_group_name_H-M         "P 1"
_symmetry_Int_Tables_number            1

loop_
_symmetry_equiv_pos_as_xyz
   "x, y, z"

loop_
   _atom_site_label
   _atom_site_occupancy
   _atom_site_fract_x
   _atom_site_fract_y
   _atom_site_fract_z
   _atom_site_adp_type
   _atom_site_B_iso_or_equiv
   _atom_site_type_symbol
    H   1.0     0.373240     0.148711     0.255748  Biso 1.000000     H
    H   1.0     0.873114     0.148664     0.255750  Biso 1.000000     H
    H   1.0     0.395420     0.033077     0.137475  Biso 1.000000     H
    H   1.0     0.895318     0.033068     0.137456  Biso 1.000000     H
    H   1.0     0.485600     0.000000     0.521993  Biso 1.000000     H
    H   1.0     0.985546     0.000000     0.521945  Biso 1.000000     H
    H   1.0     0.544564     0.728880     0.443580  Biso 1.000000     H
    H   1.0     0.000000     0.728810     0.443511  Biso 1.000000     H
    H   1.0     0.497177     0.765166     0.289451  Biso 1.000000     H
    H   1.0     0.997086     0.765115     0.289381  Biso 1.000000     H
    H   1.0     0.538293     0.848335     0.559588  Biso 1.000000     H
    H   1.0     0.000000     0.848258     0.559525  Biso 1.000000     H
    H   1.0     0.376807     0.851265     0.755774  Biso 1.000000     H
    H   1.0     0.876804     0.851264     0.755768  Biso 1.000000     H
    H   1.0     0.354614     0.966891     0.637495  Biso 1.000000     H
    H   1.0     0.854627     0.966881     0.637482  Biso 1.000000     H
    H   1.0     0.264378    -0.003295     0.021969  Biso 1.000000     H
    H   1.0     0.764386    -0.003277     0.021955  Biso 1.000000     H
    H   1.0     0.205491     0.271109     0.943584  Biso 1.000000     H
    H   1.0     0.705457     0.271111     0.943541  Biso 1.000000     H
    H   1.0     0.252911     0.234826     0.789463  Biso 1.000000     H
    H   1.0     0.752853     0.234808     0.789418  Biso 1.000000     H
    H   1.0     0.211695     0.151642     0.059558  Biso 1.000000     H
    H   1.0     0.711691     0.151662     0.059531  Biso 1.000000     H
    H   1.0     0.126937     0.648653     0.244254  Biso 1.000000     H
    H   1.0     0.626784     0.648698     0.244261  Biso 1.000000     H
    H   1.0     0.104741     0.533071     0.362561  Biso 1.000000     H
    H   1.0     0.604589     0.533079     0.362544  Biso 1.000000     H
    H   1.0     0.014441     0.503197     0.978109  Biso 1.000000     H
    H   1.0     0.514361     0.503276     0.978061  Biso 1.000000     H
    H   1.0    -0.044445     0.228813     0.056546  Biso 1.000000     H
    H   1.0     0.455421     0.228891     0.056461  Biso 1.000000     H
    H   1.0     0.002941     0.265135     0.210669  Biso 1.000000     H
    H   1.0     0.502836     0.265178     0.210584  Biso 1.000000     H
    H   1.0    -0.038243     0.348250     0.940546  Biso 1.000000     H
    H   1.0     0.461650     0.348345     0.940477  Biso 1.000000     H
    H   1.0     0.123147     0.351290     0.744270  Biso 1.000000     H
    H   1.0     0.623219     0.351280     0.744239  Biso 1.000000     H
    H   1.0     0.145342     0.466895     0.862562  Biso 1.000000     H
    H   1.0     0.645395     0.466921     0.862509  Biso 1.000000     H
    H   1.0     0.235627     0.496712     0.478076  Biso 1.000000     H
    H   1.0     0.735638     0.496683     0.478001  Biso 1.000000     H
    H   1.0     0.294529     0.771105     0.556512  Biso 1.000000     H
    H   1.0     0.794588     0.771074     0.556416  Biso 1.000000     H
    H   1.0     0.247116     0.734806     0.710632  Biso 1.000000     H
    H   1.0     0.747154     0.734798     0.710534  Biso 1.000000     H
    H   1.0     0.288325     0.651651     0.440502  Biso 1.000000     H
    H   1.0     0.788343     0.651614     0.440413  Biso 1.000000     H
    C   1.0     0.427046     0.063365     0.359049  Biso 1.000000     C
    C   1.0     0.926977     0.063316     0.359029  Biso 1.000000     C
    C   1.0     0.461541     0.975056     0.383030  Biso 1.000000     C
    C   1.0     0.961471     0.974998     0.382983  Biso 1.000000     C
    C   1.0     0.400191     0.081423     0.272351  Biso 1.000000     C
    C   1.0     0.900085     0.081381     0.272342  Biso 1.000000     C
    C   1.0     0.465915     0.906047     0.315745  Biso 1.000000     C
    C   1.0     0.965835     0.905997     0.315684  Biso 1.000000     C
    C   1.0     0.422140     0.140193     0.422543  Biso 1.000000     C
    C   1.0     0.922105     0.140140     0.422537  Biso 1.000000     C
    C   1.0     0.411307     0.015910     0.206012  Biso 1.000000     C
    C   1.0     0.911201     0.015883     0.205989  Biso 1.000000     C
    C   1.0     0.442559     0.929222     0.226411  Biso 1.000000     C
    C   1.0     0.942491     0.929197     0.226352  Biso 1.000000     C
    C   1.0     0.451114     0.862368     0.151488  Biso 1.000000     C
    C   1.0     0.951140     0.862423     0.151362  Biso 1.000000     C
    C   1.0     0.488190     0.951497     0.470979  Biso 1.000000     C
    C   1.0     0.988126     0.951430     0.470927  Biso 1.000000     C
    C   1.0     0.521495     0.797172     0.426013  Biso 1.000000     C
    C   1.0     0.000000     0.797106     0.425947  Biso 1.000000     C
    C   1.0     0.496023     0.817385     0.340107  Biso 1.000000     C
    C   1.0     0.995934     0.817331     0.340042  Biso 1.000000     C
    C   1.0     0.517684     0.864834     0.491843  Biso 1.000000     C
    C   1.0     0.000000     0.864764     0.491783  Biso 1.000000     C
    C   1.0     0.322992     0.936617     0.859069  Biso 1.000000     C
    C   1.0     0.822952     0.936608     0.859049  Biso 1.000000     C
    C   1.0     0.288468     0.024920     0.883036  Biso 1.000000     C
    C   1.0     0.788494     0.024932     0.883023  Biso 1.000000     C
    C   1.0     0.349842     0.918550     0.772371  Biso 1.000000     C
    C   1.0     0.849860     0.918555     0.772364  Biso 1.000000     C
    C   1.0     0.284156     0.093941     0.815760  Biso 1.000000     C
    C   1.0     0.784078     0.093922     0.815720  Biso 1.000000     C
    C   1.0     0.327865     0.859783     0.922558  Biso 1.000000     C
    C   1.0     0.827863     0.859783     0.922549  Biso 1.000000     C
    C   1.0     0.338751     0.984066     0.706034  Biso 1.000000     C
    C   1.0     0.838721     0.984050     0.706013  Biso 1.000000     C
    C   1.0     0.307483     0.070751     0.726425  Biso 1.000000     C
    C   1.0     0.807487     0.070747     0.726397  Biso 1.000000     C
    C   1.0     0.298897     0.137583     0.651490  Biso 1.000000     C
    C   1.0     0.798879     0.137568     0.651450  Biso 1.000000     C
    C   1.0     0.261820     0.048482     0.970984  Biso 1.000000     C
    C   1.0     0.761786     0.048486     0.970958  Biso 1.000000     C
    C   1.0     0.228556     0.202816     0.926019  Biso 1.000000     C
    C   1.0     0.728505     0.202813     0.925978  Biso 1.000000     C
    C   1.0     0.254030     0.182600     0.840114  Biso 1.000000     C
    C   1.0     0.754015     0.182597     0.840082  Biso 1.000000     C
    C   1.0     0.232314     0.135143     0.991840  Biso 1.000000     C
    C   1.0     0.732319     0.135159     0.991816  Biso 1.000000     C
    C   1.0     0.073049     0.563301     0.140989  Biso 1.000000     C
    C   1.0     0.572962     0.563348     0.140970  Biso 1.000000     C
    C   1.0     0.038538     0.475011     0.117048  Biso 1.000000     C
    C   1.0     0.538454     0.475066     0.116999  Biso 1.000000     C
    C   1.0     0.099954     0.581371     0.227672  Biso 1.000000     C
    C   1.0     0.599824     0.581412     0.227664  Biso 1.000000     C
    C   1.0     0.034184     0.406015     0.184353  Biso 1.000000     C
    C   1.0     0.534094     0.406058     0.184287  Biso 1.000000     C
    C   1.0     0.077905     0.640127     0.077481  Biso 1.000000     C
    C   1.0     0.577873     0.640167     0.077466  Biso 1.000000     C
    C   1.0     0.088844     0.515880     0.294033  Biso 1.000000     C
    C   1.0     0.588710     0.515905     0.294008  Biso 1.000000     C
    C   1.0     0.057531     0.429224     0.273683  Biso 1.000000     C
    C   1.0     0.557450     0.429242     0.273620  Biso 1.000000     C
    C   1.0     0.048863     0.362450     0.348672  Biso 1.000000     C
    C   1.0     0.548873     0.362405     0.348556  Biso 1.000000     C
    C   1.0     0.011876     0.451434     0.029107  Biso 1.000000     C
    C   1.0     0.511790     0.451507     0.029053  Biso 1.000000     C
    C   1.0    -0.021395     0.297112     0.074102  Biso 1.000000     C
    C   1.0     0.478492     0.297182     0.074025  Biso 1.000000     C
    C   1.0     0.004081     0.317347     0.160005  Biso 1.000000     C
    C   1.0     0.503980     0.317397     0.159928  Biso 1.000000     C
    C   1.0    -0.017612     0.364765     0.008262  Biso 1.000000     C
    C   1.0     0.482287     0.364845     0.008195  Biso 1.000000     C
    C   1.0     0.177006     0.436634     0.640991  Biso 1.000000     C
    C   1.0     0.677017     0.436628     0.640936  Biso 1.000000     C
    C   1.0     0.211519     0.524919     0.617033  Biso 1.000000     C
    C   1.0     0.711563     0.524897     0.616962  Biso 1.000000     C
    C   1.0     0.150118     0.418574     0.727679  Biso 1.000000     C
    C   1.0     0.650184     0.418564     0.727638  Biso 1.000000     C
    C   1.0     0.215876     0.593924     0.684327  Biso 1.000000     C
    C   1.0     0.715864     0.593925     0.684231  Biso 1.000000     C
    C   1.0     0.172126     0.359804     0.577491  Biso 1.000000     C
    C   1.0     0.672139     0.359791     0.577454  Biso 1.000000     C
    C   1.0     0.161234     0.484075     0.794030  Biso 1.000000     C
    C   1.0     0.661259     0.484089     0.793969  Biso 1.000000     C
    C   1.0     0.192520     0.570733     0.773658  Biso 1.000000     C
    C   1.0     0.692544     0.570740     0.773566  Biso 1.000000     C
    C   1.0     0.201130     0.637543     0.848619  Biso 1.000000     C
    C   1.0     0.701078     0.637599     0.848481  Biso 1.000000     C
    C   1.0     0.238194     0.548483     0.529093  Biso 1.000000     C
    C   1.0     0.738193     0.548460     0.529010  Biso 1.000000     C
    C   1.0     0.271469     0.702810     0.574072  Biso 1.000000     C
    C   1.0     0.771497     0.702788     0.573977  Biso 1.000000     C
    C   1.0     0.245981     0.682589     0.659973  Biso 1.000000     C
    C   1.0     0.746027     0.682574     0.659883  Biso 1.000000     C
    C   1.0     0.267691     0.635148     0.508241  Biso 1.000000     C
    C   1.0     0.767724     0.635115     0.508156  Biso 1.000000     C
    O   1.0     0.349203     0.194548     0.418761  Biso 1.000000     O
    O   1.0     0.849200     0.194532     0.418742  Biso 1.000000     O
    O   1.0     0.492032     0.152990     0.477756  Biso 1.000000     O
    O   1.0     0.992016     0.152936     0.477731  Biso 1.000000     O
    O   1.0     0.403266     0.788712     0.157033  Biso 1.000000     O
    O   1.0     0.903312     0.788745     0.156731  Biso 1.000000     O
    O   1.0     0.004521     0.886229     0.086551  Biso 1.000000     O
    O   1.0     0.504395     0.886088     0.086577  Biso 1.000000     O
    O   1.0     0.400787     0.805412     0.918768  Biso 1.000000     O
    O   1.0     0.900795     0.805420     0.918772  Biso 1.000000     O
    O   1.0     0.257969     0.846989     0.977766  Biso 1.000000     O
    O   1.0     0.757955     0.846980     0.977741  Biso 1.000000     O
    O   1.0     0.346743     0.211245     0.656950  Biso 1.000000     O
    O   1.0     0.846715     0.211234     0.656945  Biso 1.000000     O
    O   1.0     0.245581     0.113813     0.586620  Biso 1.000000     O
    O   1.0     0.745568     0.113823     0.586568  Biso 1.000000     O
    O   1.0     0.150812     0.694518     0.081265  Biso 1.000000     O
    O   1.0     0.650812     0.694518     0.081244  Biso 1.000000     O
    O   1.0     0.007992     0.652917     0.022288  Biso 1.000000     O
    O   1.0     0.507972     0.652976     0.022264  Biso 1.000000     O
    O   1.0     0.096690     0.288770     0.343310  Biso 1.000000     O
    O   1.0     0.596718     0.288743     0.343062  Biso 1.000000     O
    O   1.0     0.495580     0.386155     0.413447  Biso 1.000000     O
    O   1.0     0.995482     0.386259     0.413481  Biso 1.000000     O
    O   1.0     0.099205     0.305429     0.581275  Biso 1.000000     O
    O   1.0     0.599222     0.305415     0.581263  Biso 1.000000     O
    O   1.0     0.242035     0.347004     0.522300  Biso 1.000000     O
    O   1.0     0.742039     0.346982     0.522255  Biso 1.000000     O
    O   1.0     0.153291     0.711211     0.843167  Biso 1.000000     O
    O   1.0     0.653228     0.711255     0.842961  Biso 1.000000     O
    O   1.0     0.254458     0.613779     0.913481  Biso 1.000000     O
    O   1.0     0.754383     0.613865     0.913372  Biso 1.000000     O
   Sr   1.0     0.420608     0.306156     0.539593  Biso 1.000000    Sr
   Sr   1.0     0.920600     0.306120     0.539586  Biso 1.000000    Sr
   Sr   1.0     0.329412     0.693839     0.039602  Biso 1.000000    Sr
   Sr   1.0     0.829402     0.693767     0.039514  Biso 1.000000    Sr
   Sr   1.0     0.079397     0.806121     0.960467  Biso 1.000000    Sr
   Sr   1.0     0.579396     0.806116     0.960429  Biso 1.000000    Sr
   Sr   1.0     0.170612     0.193788     0.460491  Biso 1.000000    Sr
   Sr   1.0     0.670599     0.193828     0.460419  Biso 1.000000    Sr
