#======================================================================

# CRYSTAL DATA

#----------------------------------------------------------------------

data_VESTA_phase_1


_pd_phase_name                         MOF
_cell_length_a                         14.52700
_cell_length_b                         15.55200
_cell_length_c                         14.10600
_cell_angle_alpha                      89.84000
_cell_angle_beta                       91.27600
_cell_angle_gamma                      89.71300
_symmetry_space_group_name_H-M         "P 1"
_symmetry_Int_Tables_number            1

loop_
_symmetry_equiv_pos_as_xyz
   "x, y, z"

loop_
   _atom_site_label
   _atom_site_occupancy
   _atom_site_fract_x
   _atom_site_fract_y
   _atom_site_fract_z
   _atom_site_adp_type
   _atom_site_B_iso_or_equiv
   _atom_site_type_symbol
    H   1.0     0.482049     0.601644     0.713371  Biso 1.000000     H
    H   1.0     0.982085     0.593402     0.722607  Biso 1.000000     H
    H   1.0     0.527240     0.480510     0.608333  Biso 1.000000     H
    H   1.0     0.000000     0.475564     0.611460  Biso 1.000000     H
    H   1.0     0.405499     0.226711     0.756781  Biso 1.000000     H
    H   1.0     0.902214     0.218160     0.752620  Biso 1.000000     H
    H   1.0     0.319615     0.199793     0.902777  Biso 1.000000     H
    H   1.0     0.825464     0.186034     0.902759  Biso 1.000000     H
    H   1.0     0.278800     0.321078     0.009373  Biso 1.000000     H
    H   1.0     0.797209     0.302367     0.019834  Biso 1.000000     H
    H   1.0     0.327063     0.469578     0.969960  Biso 1.000000     H
    H   1.0     0.845067     0.451904     0.985008  Biso 1.000000     H
    H   1.0     0.278836     0.393119     0.219598  Biso 1.000000     H
    H   1.0     0.770947     0.395927     0.221249  Biso 1.000000     H
    H   1.0     0.237401     0.511261     0.106220  Biso 1.000000     H
    H   1.0     0.728388     0.511894     0.105528  Biso 1.000000     H
    H   1.0     0.338061     0.770292     0.261820  Biso 1.000000     H
    H   1.0     0.844585     0.772679     0.247178  Biso 1.000000     H
    H   1.0     0.401308     0.803845     0.421421  Biso 1.000000     H
    H   1.0     0.923189     0.807234     0.399133  Biso 1.000000     H
    H   1.0     0.427484     0.686823     0.540456  Biso 1.000000     H
    H   1.0     0.956735     0.691987     0.518390  Biso 1.000000     H
    H   1.0     0.390747     0.536068     0.498699  Biso 1.000000     H
    H   1.0     0.910002     0.541684     0.484923  Biso 1.000000     H
    H   1.0     0.017597     0.095012     0.777481  Biso 1.000000     H
    H   1.0     0.519922     0.104848     0.792459  Biso 1.000000     H
    H   1.0    -0.024833     0.977654     0.888901  Biso 1.000000     H
    H   1.0     0.471354     0.981358     0.892479  Biso 1.000000     H
    H   1.0     0.094559     0.718367     0.749237  Biso 1.000000     H
    H   1.0     0.593108     0.730359     0.738766  Biso 1.000000     H
    H   1.0     0.172718     0.685474     0.600056  Biso 1.000000     H
    H   1.0     0.679975     0.705857     0.592732  Biso 1.000000     H
    H   1.0     0.204306     0.801895     0.483662  Biso 1.000000     H
    H   1.0     0.723018     0.829339     0.490081  Biso 1.000000     H
    H   1.0     0.157712     0.952156     0.517977  Biso 1.000000     H
    H   1.0     0.676373     0.977662     0.533369  Biso 1.000000     H
    H   1.0     0.227763     0.893559     0.283882  Biso 1.000000     H
    H   1.0     0.721134     0.894829     0.279488  Biso 1.000000     H
    H   1.0     0.270984     0.010267     0.397118  Biso 1.000000     H
    H   1.0     0.762789     0.013240     0.391274  Biso 1.000000     H
    H   1.0     0.155220     0.270855     0.250730  Biso 1.000000     H
    H   1.0     0.661121     0.272356     0.232592  Biso 1.000000     H
    H   1.0     0.076386     0.304717     0.098205  Biso 1.000000     H
    H   1.0     0.598836     0.305577     0.072106  Biso 1.000000     H
    H   1.0     0.042155     0.188603     0.981395  Biso 1.000000     H
    H   1.0     0.574376     0.188316     0.954167  Biso 1.000000     H
    H   1.0     0.088508     0.038125     0.017645  Biso 1.000000     H
    H   1.0     0.610929     0.037442    -0.001946  Biso 1.000000     H
    C   1.0     0.482472     0.318167     0.616868  Biso 1.000000     C
    C   1.0     0.980355     0.312549     0.616986  Biso 1.000000     C
    C   1.0     0.463144     0.383745     0.691236  Biso 1.000000     C
    C   1.0     0.962364     0.376297     0.693679  Biso 1.000000     C
    C   1.0     0.413253     0.364962     0.775579  Biso 1.000000     C
    C   1.0     0.916120     0.354896     0.779438  Biso 1.000000     C
    C   1.0     0.390817     0.434752     0.838337  Biso 1.000000     C
    C   1.0     0.898479     0.422365     0.846821  Biso 1.000000     C
    C   1.0     0.415918     0.520659     0.813889  Biso 1.000000     C
    C   1.0     0.922222     0.509048     0.824180  Biso 1.000000     C
    C   1.0     0.464307     0.535813     0.732101  Biso 1.000000     C
    C   1.0     0.965505     0.526981     0.739949  Biso 1.000000     C
    C   1.0     0.489329     0.467750     0.672633  Biso 1.000000     C
    C   1.0     0.987808     0.460804     0.676812  Biso 1.000000     C
    C   1.0     0.386868     0.280212     0.802188  Biso 1.000000     C
    C   1.0     0.889154     0.269592     0.802793  Biso 1.000000     C
    C   1.0     0.339213     0.265235     0.884225  Biso 1.000000     C
    C   1.0     0.846659     0.251645     0.887113  Biso 1.000000     C
    C   1.0     0.316318     0.333935     0.944787  Biso 1.000000     C
    C   1.0     0.830202     0.317717     0.953252  Biso 1.000000     C
    C   1.0     0.342293     0.416553     0.922475  Biso 1.000000     C
    C   1.0     0.855901     0.400981     0.933547  Biso 1.000000     C
    C   1.0     0.390189     0.596372     0.874910  Biso 1.000000     C
    C   1.0     0.901655     0.582730     0.890191  Biso 1.000000     C
    C   1.0     0.272016     0.676237     0.118535  Biso 1.000000     C
    C   1.0     0.769359     0.675260     0.109351  Biso 1.000000     C
    C   1.0     0.289107     0.611371     0.195683  Biso 1.000000     C
    C   1.0     0.788083     0.612792     0.188263  Biso 1.000000     C
    C   1.0     0.329022     0.632955     0.286432  Biso 1.000000     C
    C   1.0     0.834533     0.635805     0.275402  Biso 1.000000     C
    C   1.0     0.345419     0.565194     0.354975  Biso 1.000000     C
    C   1.0     0.853801     0.569333     0.344726  Biso 1.000000     C
    C   1.0     0.327710     0.477904     0.328685  Biso 1.000000     C
    C   1.0     0.830512     0.482223     0.323188  Biso 1.000000     C
    C   1.0     0.290723     0.459869     0.239614  Biso 1.000000     C
    C   1.0     0.786862     0.462733     0.237704  Biso 1.000000     C
    C   1.0     0.268692     0.526251     0.175118  Biso 1.000000     C
    C   1.0     0.763651     0.527806     0.172161  Biso 1.000000     C
    C   1.0     0.350098     0.718967     0.313283  Biso 1.000000     C
    C   1.0     0.860092     0.721785     0.298278  Biso 1.000000     C
    C   1.0     0.385328     0.737517     0.402528  Biso 1.000000     C
    C   1.0     0.903553     0.741043     0.383623  Biso 1.000000     C
    C   1.0     0.400553     0.671205     0.469837  Biso 1.000000     C
    C   1.0     0.922582     0.675731     0.451221  Biso 1.000000     C
    C   1.0     0.380875     0.587156     0.446514  Biso 1.000000     C
    C   1.0     0.897590     0.592007     0.432270  Biso 1.000000     C
    C   1.0     0.347780     0.403609     0.395596  Biso 1.000000     C
    C   1.0     0.851891     0.409541     0.391581  Biso 1.000000     C
    C   1.0     0.018029     0.814205     0.885014  Biso 1.000000     C
    C   1.0     0.516878     0.818910     0.880582  Biso 1.000000     C
    C   1.0     0.036309     0.877640     0.807900  Biso 1.000000     C
    C   1.0     0.536201     0.886177     0.807731  Biso 1.000000     C
    C   1.0     0.083127     0.855577     0.722629  Biso 1.000000     C
    C   1.0     0.586797     0.869122     0.723472  Biso 1.000000     C
    C   1.0     0.102232     0.922922     0.655407  Biso 1.000000     C
    C   1.0     0.610721     0.940340     0.663129  Biso 1.000000     C
    C   1.0     0.078797     0.009901     0.677359  Biso 1.000000     C
    C   1.0     0.586671     0.025936     0.690389  Biso 1.000000     C
    C   1.0     0.034303     0.028427     0.760726  Biso 1.000000     C
    C   1.0     0.536804     0.039309     0.771611  Biso 1.000000     C
    C   1.0     0.011103     0.962507     0.823966  Biso 1.000000     C
    C   1.0     0.510011     0.969901     0.828362  Biso 1.000000     C
    C   1.0     0.109250     0.769836     0.699478  Biso 1.000000     C
    C   1.0     0.612624     0.784682     0.694887  Biso 1.000000     C
    C   1.0     0.152548     0.751492     0.615688  Biso 1.000000     C
    C   1.0     0.660875     0.771092     0.612956  Biso 1.000000     C
    C   1.0     0.170728     0.817559     0.549837  Biso 1.000000     C
    C   1.0     0.685064     0.841089     0.554654  Biso 1.000000     C
    C   1.0     0.145698     0.901188     0.569286  Biso 1.000000     C
    C   1.0     0.659979     0.923582     0.579059  Biso 1.000000     C
    C   1.0     0.101479     0.083014     0.611238  Biso 1.000000     C
    C   1.0     0.617134     0.103539     0.634842  Biso 1.000000     C
    C   1.0     0.230869     0.174322     0.390224  Biso 1.000000     C
    C   1.0     0.728181     0.178169     0.377128  Biso 1.000000     C
    C   1.0     0.211495     0.111055     0.312618  Biso 1.000000     C
    C   1.0     0.710912     0.113318     0.300627  Biso 1.000000     C
    C   1.0     0.164835     0.133574     0.225136  Biso 1.000000     C
    C   1.0     0.671089     0.134859     0.209560  Biso 1.000000     C
    C   1.0     0.145238     0.066559     0.157122  Biso 1.000000     C
    C   1.0     0.655092     0.066899     0.141755  Biso 1.000000     C
    C   1.0     0.168428     0.979361     0.180171  Biso 1.000000     C
    C   1.0     0.672639     0.979575     0.169211  Biso 1.000000     C
    C   1.0     0.211979     0.960358     0.266081  Biso 1.000000     C
    C   1.0     0.709384     0.961599     0.258590  Biso 1.000000     C
    C   1.0     0.235532     0.025914     0.330315  Biso 1.000000     C
    C   1.0     0.731386     0.028093     0.322227  Biso 1.000000     C
    C   1.0     0.139451     0.219601     0.200640  Biso 1.000000     C
    C   1.0     0.649769     0.220882     0.181608  Biso 1.000000     C
    C   1.0     0.095864     0.238475     0.115022  Biso 1.000000     C
    C   1.0     0.615008     0.239258     0.091923  Biso 1.000000     C
    C   1.0     0.076464     0.172660     0.048762  Biso 1.000000     C
    C   1.0     0.600586     0.172781     0.025228  Biso 1.000000     C
    C   1.0     0.101281     0.088852     0.069275  Biso 1.000000     C
    C   1.0     0.620269     0.088697     0.049701  Biso 1.000000     C
    C   1.0     0.147572     0.906295     0.112659  Biso 1.000000     C
    C   1.0     0.652206     0.905141     0.103377  Biso 1.000000     C
    O   1.0     0.423903     0.258110     0.601420  Biso 1.000000     O
    O   1.0     0.919057     0.256107     0.596511  Biso 1.000000     O
    O   1.0     0.054566     0.318519     0.570542  Biso 1.000000     O
    O   1.0     0.554352     0.325983     0.566983  Biso 1.000000     O
    O   1.0     0.335795     0.651493     0.837710  Biso 1.000000     O
    O   1.0     0.847458     0.640875     0.858424  Biso 1.000000     O
    O   1.0     0.425611     0.599716     0.958177  Biso 1.000000     O
    O   1.0     0.941415     0.581760     0.971341  Biso 1.000000     O
    O   1.0     0.332829     0.733853     0.103643  Biso 1.000000     O
    O   1.0     0.829241     0.733037     0.091866  Biso 1.000000     O
    O   1.0     0.199054     0.670110     0.066813  Biso 1.000000     O
    O   1.0     0.696123     0.666867     0.058376  Biso 1.000000     O
    O   1.0     0.401743     0.345424     0.366037  Biso 1.000000     O
    O   1.0     0.906254     0.351441     0.362775  Biso 1.000000     O
    O   1.0     0.308296     0.403881     0.475025  Biso 1.000000     O
    O   1.0     0.812473     0.411024     0.470999  Biso 1.000000     O
    O   1.0     0.078409     0.755848     0.904107  Biso 1.000000     O
    O   1.0     0.576585     0.759266     0.896072  Biso 1.000000     O
    O   1.0     0.444237     0.825566     0.929524  Biso 1.000000     O
    O   1.0     0.945024     0.822126     0.933062  Biso 1.000000     O
    O   1.0     0.159969     0.137275     0.641614  Biso 1.000000     O
    O   1.0     0.668311     0.156328     0.679014  Biso 1.000000     O
    O   1.0     0.059301     0.085071     0.531379  Biso 1.000000     O
    O   1.0     0.589504     0.111162     0.548638  Biso 1.000000     O
    O   1.0     0.170759     0.232480     0.407450  Biso 1.000000     O
    O   1.0     0.667675     0.236703     0.391582  Biso 1.000000     O
    O   1.0     0.304793     0.166248     0.440343  Biso 1.000000     O
    O   1.0     0.800968     0.170703     0.429164  Biso 1.000000     O
    O   1.0     0.093809     0.848255     0.141702  Biso 1.000000     O
    O   1.0     0.597659     0.848161     0.133639  Biso 1.000000     O
    O   1.0     0.187048     0.907602     0.033187  Biso 1.000000     O
    O   1.0     0.691916     0.904112     0.024099  Biso 1.000000     O
   Ba   1.0     0.486361     0.205645     0.429021  Biso 1.000000    Ba
   Ba   1.0     0.985304     0.206896     0.422646  Biso 1.000000    Ba
   Ba   1.0     0.262147     0.787108     0.926049  Biso 1.000000    Ba
   Ba   1.0     0.763326     0.783072     0.915590  Biso 1.000000    Ba
   Ba   1.0     0.014540     0.705534     0.077821  Biso 1.000000    Ba
   Ba   1.0     0.515411     0.707472     0.071004  Biso 1.000000    Ba
   Ba   1.0     0.237178     0.282275     0.583309  Biso 1.000000    Ba
   Ba   1.0     0.735443     0.285220     0.570846  Biso 1.000000    Ba
