#======================================================================

# CRYSTAL DATA

#----------------------------------------------------------------------

data_VESTA_phase_1


_pd_phase_name                         MOF
_cell_length_a                         19.14500
_cell_length_b                         19.19900
_cell_length_c                         17.42000
_cell_angle_alpha                      95.56700
_cell_angle_beta                       105.60700
_cell_angle_gamma                      90.23400
_symmetry_space_group_name_H-M         "P 1"
_symmetry_Int_Tables_number            1

loop_
_symmetry_equiv_pos_as_xyz
   "x, y, z"

loop_
   _atom_site_label
   _atom_site_occupancy
   _atom_site_fract_x
   _atom_site_fract_y
   _atom_site_fract_z
   _atom_site_adp_type
   _atom_site_B_iso_or_equiv
   _atom_site_type_symbol
    H   1.0     0.259179     0.318236     0.059728  Biso 1.000000     H
    H   1.0     0.253415     0.823660     0.064595  Biso 1.000000     H
    H   1.0     0.758508     0.316777     0.057187  Biso 1.000000     H
    H   1.0     0.759313     0.817218     0.057436  Biso 1.000000     H
    H   1.0     0.218396     0.236031     0.050100  Biso 1.000000     H
    H   1.0     0.195917     0.754087     0.069108  Biso 1.000000     H
    H   1.0     0.718864     0.233854     0.046833  Biso 1.000000     H
    H   1.0     0.719905     0.734228     0.047212  Biso 1.000000     H
    H   1.0     0.067364     0.031819     0.177865  Biso 1.000000     H
    H   1.0     0.063681     0.533685     0.180486  Biso 1.000000     H
    H   1.0     0.568752     0.029767     0.176956  Biso 1.000000     H
    H   1.0     0.569296     0.527445     0.174746  Biso 1.000000     H
    H   1.0     0.497323     0.473185     0.121602  Biso 1.000000     H
    H   1.0     0.496193     0.976098     0.123912  Biso 1.000000     H
    H   1.0     0.993456     0.478462     0.124107  Biso 1.000000     H
    H   1.0     0.995602     0.978068     0.123482  Biso 1.000000     H
    H   1.0     0.346930     0.171887     0.305202  Biso 1.000000     H
    H   1.0     0.350428     0.669354     0.302398  Biso 1.000000     H
    H   1.0     0.845108     0.171252     0.303651  Biso 1.000000     H
    H   1.0     0.846958     0.671296     0.303483  Biso 1.000000     H
    H   1.0     0.116083     0.391205     0.400622  Biso 1.000000     H
    H   1.0     0.116637     0.892893     0.401452  Biso 1.000000     H
    H   1.0     0.617371     0.393124     0.402257  Biso 1.000000     H
    H   1.0     0.618810     0.892534     0.402264  Biso 1.000000     H
    H   1.0     0.226847     0.435715     0.938002  Biso 1.000000     H
    H   1.0     0.218423     0.931718     0.935332  Biso 1.000000     H
    H   1.0     0.717481     0.430359     0.931734  Biso 1.000000     H
    H   1.0     0.717830     0.929485     0.932465  Biso 1.000000     H
    H   1.0     0.185704     0.514817     0.943892  Biso 1.000000     H
    H   1.0     0.153961     0.997144     0.925665  Biso 1.000000     H
    H   1.0     0.652534     0.495208     0.921776  Biso 1.000000     H
    H   1.0     0.652761     0.994347     0.922131  Biso 1.000000     H
    H   1.0     0.488528     0.234635     0.827059  Biso 1.000000     H
    H   1.0     0.485950     0.731917     0.827060  Biso 1.000000     H
    H   1.0     0.988465     0.233888     0.826795  Biso 1.000000     H
    H   1.0     0.989887     0.732530     0.828784  Biso 1.000000     H
    H   1.0     0.440110     0.287869     0.879811  Biso 1.000000     H
    H   1.0     0.438871     0.785820     0.880688  Biso 1.000000     H
    H   1.0     0.939961     0.287216     0.879486  Biso 1.000000     H
    H   1.0     0.939781     0.784784     0.880163  Biso 1.000000     H
    H   1.0     0.200073     0.081814     0.695456  Biso 1.000000     H
    H   1.0     0.195207     0.578984     0.691140  Biso 1.000000     H
    H   1.0     0.701636     0.080228     0.693939  Biso 1.000000     H
    H   1.0     0.699388     0.580361     0.692151  Biso 1.000000     H
    H   1.0     0.408703     0.354464     0.589758  Biso 1.000000     H
    H   1.0     0.409222     0.855462     0.592023  Biso 1.000000     H
    H   1.0     0.909673     0.354234     0.589640  Biso 1.000000     H
    H   1.0     0.912761     0.854819     0.592105  Biso 1.000000     H
    H   1.0     0.248616     0.181452     0.934259  Biso 1.000000     H
    H   1.0     0.246863     0.679792     0.934689  Biso 1.000000     H
    H   1.0     0.749831     0.179525     0.931622  Biso 1.000000     H
    H   1.0     0.748273     0.678604     0.930698  Biso 1.000000     H
    H   1.0     0.308738     0.246842     0.924489  Biso 1.000000     H
    H   1.0     0.305247     0.748707     0.929442  Biso 1.000000     H
    H   1.0     0.810101     0.244535     0.921154  Biso 1.000000     H
    H   1.0     0.808849     0.743366     0.920130  Biso 1.000000     H
    H   1.0     0.430414     0.472822     0.820167  Biso 1.000000     H
    H   1.0     0.432338     0.973429     0.820653  Biso 1.000000     H
    H   1.0     0.932907     0.470989     0.816543  Biso 1.000000     H
    H   1.0     0.932460     0.973847     0.821599  Biso 1.000000     H
    H   1.0     0.003116     0.030585     0.877294  Biso 1.000000     H
    H   1.0     0.002206     0.527489     0.873064  Biso 1.000000     H
    H   1.0     0.503998     0.029232     0.875972  Biso 1.000000     H
    H   1.0     0.501777     0.528991     0.875284  Biso 1.000000     H
    H   1.0     0.149040     0.332755     0.695984  Biso 1.000000     H
    H   1.0     0.152589     0.831513     0.693870  Biso 1.000000     H
    H   1.0     0.648459     0.332184     0.695373  Biso 1.000000     H
    H   1.0     0.648112     0.831500     0.694175  Biso 1.000000     H
    H   1.0     0.384605     0.108718     0.594009  Biso 1.000000     H
    H   1.0     0.382316     0.608198     0.593223  Biso 1.000000     H
    H   1.0     0.886529     0.106547     0.592828  Biso 1.000000     H
    H   1.0     0.885243     0.608503     0.591874  Biso 1.000000     H
    H   1.0     0.271355     0.068404     0.060386  Biso 1.000000     H
    H   1.0     0.274011     0.566912     0.058972  Biso 1.000000     H
    H   1.0     0.771212     0.066811     0.057584  Biso 1.000000     H
    H   1.0     0.771373     0.566988     0.056737  Biso 1.000000     H
    H   1.0     0.305691    -0.014124     0.050468  Biso 1.000000     H
    H   1.0     0.314191     0.487242     0.052598  Biso 1.000000     H
    H   1.0     0.805395    -0.015931     0.047290  Biso 1.000000     H
    H   1.0     0.805353     0.484216     0.046331  Biso 1.000000     H
    H   1.0     0.011027     0.269030     0.169292  Biso 1.000000     H
    H   1.0     0.011237     0.768725     0.166750  Biso 1.000000     H
    H   1.0     0.515009     0.271595     0.171089  Biso 1.000000     H
    H   1.0     0.517028     0.773299     0.172322  Biso 1.000000     H
    H   1.0     0.060356     0.216748     0.118669  Biso 1.000000     H
    H   1.0     0.061693     0.716560     0.116024  Biso 1.000000     H
    H   1.0     0.562078     0.218272     0.118797  Biso 1.000000     H
    H   1.0     0.563537     0.719945     0.119414  Biso 1.000000     H
    H   1.0     0.302236     0.421510     0.303784  Biso 1.000000     H
    H   1.0     0.305987     0.924323     0.308126  Biso 1.000000     H
    H   1.0     0.804582     0.421191     0.302870  Biso 1.000000     H
    H   1.0     0.806500     0.921999     0.304886  Biso 1.000000     H
    H   1.0     0.086157     0.146648     0.405591  Biso 1.000000     H
    H   1.0     0.087257     0.646657     0.403640  Biso 1.000000     H
    H   1.0     0.588020     0.145638     0.404830  Biso 1.000000     H
    H   1.0     0.588682     0.645195     0.404297  Biso 1.000000     H
    C   1.0     0.289572     0.261491     0.155707  Biso 1.000000     C
    C   1.0     0.287277     0.765680     0.160612  Biso 1.000000     C
    C   1.0     0.788901     0.259954     0.153201  Biso 1.000000     C
    C   1.0     0.790186     0.760394     0.153465  Biso 1.000000     C
    C   1.0     0.337178     0.208326     0.259893  Biso 1.000000     C
    C   1.0     0.339239     0.707551     0.259040  Biso 1.000000     C
    C   1.0     0.835687     0.207452     0.258099  Biso 1.000000     C
    C   1.0     0.837320     0.707658     0.258090  Biso 1.000000     C
    C   1.0     0.035949     0.454073     0.237664  Biso 1.000000     C
    C   1.0     0.037984     0.954639     0.237291  Biso 1.000000     C
    C   1.0     0.539307     0.452342     0.236309  Biso 1.000000     C
    C   1.0     0.539514     0.953670     0.237895  Biso 1.000000     C
    C   1.0     0.080692     0.404339     0.344429  Biso 1.000000     C
    C   1.0     0.081698     0.905679     0.344854  Biso 1.000000     C
    C   1.0     0.582529     0.405217     0.345294  Biso 1.000000     C
    C   1.0     0.583531     0.905241     0.345808  Biso 1.000000     C
    C   1.0     0.473967     0.218619     0.484802  Biso 1.000000     C
    C   1.0     0.473835     0.718484     0.484619  Biso 1.000000     C
    C   1.0     0.972326     0.218365     0.484649  Biso 1.000000     C
    C   1.0     0.974574     0.718999     0.484363  Biso 1.000000     C
    C   1.0     0.208846     0.489969     0.840674  Biso 1.000000     C
    C   1.0     0.204253     0.986467     0.837702  Biso 1.000000     C
    C   1.0     0.703182     0.484845     0.834118  Biso 1.000000     C
    C   1.0     0.704121     0.984098     0.835100  Biso 1.000000     C
    C   1.0     0.209714     0.044125     0.739392  Biso 1.000000     C
    C   1.0     0.207068     0.542786     0.736715  Biso 1.000000     C
    C   1.0     0.710759     0.042310     0.737598  Biso 1.000000     C
    C   1.0     0.708987     0.542645     0.736051  Biso 1.000000     C
    C   1.0     0.423592     0.304941     0.763264  Biso 1.000000     C
    C   1.0     0.422981     0.804362     0.764567  Biso 1.000000     C
    C   1.0     0.924164     0.304753     0.763107  Biso 1.000000     C
    C   1.0     0.925534     0.803380     0.764378  Biso 1.000000     C
    C   1.0     0.405720     0.345547     0.649280  Biso 1.000000     C
    C   1.0     0.405984     0.846152     0.651345  Biso 1.000000     C
    C   1.0     0.906601     0.345349     0.649142  Biso 1.000000     C
    C   1.0     0.909010     0.845260     0.651174  Biso 1.000000     C
    C   1.0     0.232424     0.035518     0.514377  Biso 1.000000     C
    C   1.0     0.231161     0.533678     0.511264  Biso 1.000000     C
    C   1.0     0.734589     0.033613     0.513093  Biso 1.000000     C
    C   1.0     0.733201     0.533408     0.511324  Biso 1.000000     C
    C   1.0     0.214830     0.236675     0.837190  Biso 1.000000     C
    C   1.0     0.213992     0.736904     0.837776  Biso 1.000000     C
    C   1.0     0.715433     0.234917     0.834964  Biso 1.000000     C
    C   1.0     0.714231     0.734010     0.833873  Biso 1.000000     C
    C   1.0     0.160854     0.294868     0.739685  Biso 1.000000     C
    C   1.0     0.163181     0.793892     0.737892  Biso 1.000000     C
    C   1.0     0.660702     0.293898     0.738593  Biso 1.000000     C
    C   1.0     0.660065     0.793181     0.737364  Biso 1.000000     C
    C   1.0     0.461178     0.050945     0.761313  Biso 1.000000     C
    C   1.0     0.458806     0.550417     0.760526  Biso 1.000000     C
    C   1.0     0.961378     0.051130     0.761971  Biso 1.000000     C
    C   1.0     0.961810     0.549165     0.758173  Biso 1.000000     C
    C   1.0     0.418822     0.097245     0.651559  Biso 1.000000     C
    C   1.0     0.416510     0.596740     0.650795  Biso 1.000000     C
    C   1.0     0.920073     0.095918     0.651042  Biso 1.000000     C
    C   1.0     0.919434     0.596495     0.649203  Biso 1.000000     C
    C   1.0     0.025731     0.282356     0.512025  Biso 1.000000     C
    C   1.0     0.026957     0.783750     0.511701  Biso 1.000000     C
    C   1.0     0.525925     0.283661     0.512494  Biso 1.000000     C
    C   1.0     0.525287     0.783838     0.512629  Biso 1.000000     C
    C   1.0     0.288605     0.012342     0.157034  Biso 1.000000     C
    C   1.0     0.290652     0.511808     0.155615  Biso 1.000000     C
    C   1.0     0.788414     0.010423     0.153991  Biso 1.000000     C
    C   1.0     0.788042     0.510315     0.152800  Biso 1.000000     C
    C   1.0     0.291048     0.458094     0.258608  Biso 1.000000     C
    C   1.0     0.293271     0.960346     0.262396  Biso 1.000000     C
    C   1.0     0.792145     0.457564     0.257498  Biso 1.000000     C
    C   1.0     0.793559     0.958124     0.259267  Biso 1.000000     C
    C   1.0     0.076215     0.199623     0.234769  Biso 1.000000     C
    C   1.0     0.075642     0.698376     0.231769  Biso 1.000000     C
    C   1.0     0.578397     0.199823     0.234671  Biso 1.000000     C
    C   1.0     0.579836     0.700781     0.234985  Biso 1.000000     C
    C   1.0     0.091044     0.156907     0.347153  Biso 1.000000     C
    C   1.0     0.091430     0.656283     0.344742  Biso 1.000000     C
    C   1.0     0.592845     0.156123     0.346437  Biso 1.000000     C
    C   1.0     0.593669     0.656100     0.346101  Biso 1.000000     C
    C   1.0     0.265983     0.466824     0.482841  Biso 1.000000     C
    C   1.0     0.266735     0.968353     0.485868  Biso 1.000000     C
    C   1.0     0.768332     0.466782     0.482798  Biso 1.000000     C
    C   1.0     0.769450     0.966757     0.484711  Biso 1.000000     C
    C   1.0     0.360116     0.372289     0.000000  Biso 1.000000     C
    C   1.0     0.357331     0.873530     0.000000  Biso 1.000000     C
    C   1.0     0.858016     0.371707    -0.002284  Biso 1.000000     C
    C   1.0     0.858089     0.870962    -0.002042  Biso 1.000000     C
    C   1.0     0.141872     0.122440     0.000000  Biso 1.000000     C
    C   1.0     0.141708     0.630680     0.996333  Biso 1.000000     C
    C   1.0     0.641955     0.120128    -0.002349  Biso 1.000000     C
    C   1.0     0.641920     0.621140    -0.002741  Biso 1.000000     C
    N   1.0     0.352863     0.295287     0.194243  Biso 1.000000     N
    N   1.0     0.352357     0.797319     0.196363  Biso 1.000000     N
    N   1.0     0.851732     0.294228     0.192395  Biso 1.000000     N
    N   1.0     0.852969     0.794785     0.192649  Biso 1.000000     N
    N   1.0     0.383045     0.260972     0.262088  Biso 1.000000     N
    N   1.0     0.385386     0.759605     0.260443  Biso 1.000000     N
    N   1.0     0.881321     0.260412     0.260761  Biso 1.000000     N
    N   1.0     0.882813     0.760763     0.260809  Biso 1.000000     N
    N   1.0     0.277993     0.206406     0.195516  Biso 1.000000     N
    N   1.0     0.277399     0.708675     0.198296  Biso 1.000000     N
    N   1.0     0.777175     0.204905     0.192949  Biso 1.000000     N
    N   1.0     0.778656     0.705165     0.193071  Biso 1.000000     N
    N   1.0     0.241777     0.279455     0.087936  Biso 1.000000     N
    N   1.0     0.236941     0.788937     0.098286  Biso 1.000000     N
    N   1.0     0.741520     0.277479     0.084882  Biso 1.000000     N
    N   1.0     0.742599     0.777832     0.085229  Biso 1.000000     N
    N   1.0     0.492199     0.400705     0.238181  Biso 1.000000     N
    N   1.0     0.492455     0.901884     0.239538  Biso 1.000000     N
    N   1.0     0.989447     0.401607     0.238376  Biso 1.000000     N
    N   1.0     0.991349     0.902171     0.237827  Biso 1.000000     N
    N   1.0     0.018889     0.369595     0.307719  Biso 1.000000     N
    N   1.0     0.020164     0.870658     0.307720  Biso 1.000000     N
    N   1.0     0.520726     0.370364     0.308918  Biso 1.000000     N
    N   1.0     0.521503     0.870720     0.309608  Biso 1.000000     N
    N   1.0     0.094117     0.457523     0.303438  Biso 1.000000     N
    N   1.0     0.095552     0.958647     0.303781  Biso 1.000000     N
    N   1.0     0.596799     0.456966     0.302846  Biso 1.000000     N
    N   1.0     0.597501     0.957549     0.303927  Biso 1.000000     N
    N   1.0     0.022996     0.499045     0.179619  Biso 1.000000     N
    N   1.0     0.025667     0.999019     0.178623  Biso 1.000000     N
    N   1.0     0.527420     0.495268     0.176283  Biso 1.000000     N
    N   1.0     0.527087     0.997333     0.178593  Biso 1.000000     N
    N   1.0     0.254014     0.456223     0.803345  Biso 1.000000     N
    N   1.0     0.253570     0.955607     0.804198  Biso 1.000000     N
    N   1.0     0.753013     0.454380     0.801115  Biso 1.000000     N
    N   1.0     0.753677     0.953226     0.801937  Biso 1.000000     N
    N   1.0     0.251786     0.490377     0.735345  Biso 1.000000     N
    N   1.0     0.256055     0.993018     0.739878  Biso 1.000000     N
    N   1.0     0.755778     0.491898     0.736948  Biso 1.000000     N
    N   1.0     0.756943     0.991040     0.738172  Biso 1.000000     N
    N   1.0     0.176154     0.042718     0.798804  Biso 1.000000     N
    N   1.0     0.178651     0.544834     0.800466  Biso 1.000000     N
    N   1.0     0.676607     0.040697     0.796494  Biso 1.000000     N
    N   1.0     0.674889     0.540896     0.795009  Biso 1.000000     N
    N   1.0     0.192663     0.471560     0.907456  Biso 1.000000     N
    N   1.0     0.182762     0.962768     0.898815  Biso 1.000000     N
    N   1.0     0.681427     0.460878     0.894959  Biso 1.000000     N
    N   1.0     0.681934     0.960089     0.895607  Biso 1.000000     N
    N   1.0     0.375133     0.356073     0.761175  Biso 1.000000     N
    N   1.0     0.375560     0.856336     0.763350  Biso 1.000000     N
    N   1.0     0.875923     0.356119     0.761016  Biso 1.000000     N
    N   1.0     0.877051     0.854578     0.762287  Biso 1.000000     N
    N   1.0     0.363737     0.381698     0.686750  Biso 1.000000     N
    N   1.0     0.364688     0.882699     0.689365  Biso 1.000000     N
    N   1.0     0.864704     0.381684     0.686554  Biso 1.000000     N
    N   1.0     0.866588     0.880992     0.688380  Biso 1.000000     N
    N   1.0     0.444119     0.296960     0.693984  Biso 1.000000     N
    N   1.0     0.443421     0.796583     0.695216  Biso 1.000000     N
    N   1.0     0.944746     0.296671     0.693866  Biso 1.000000     N
    N   1.0     0.946853     0.796182     0.695506  Biso 1.000000     N
    N   1.0     0.445323     0.265508     0.825828  Biso 1.000000     N
    N   1.0     0.443749     0.764002     0.826411  Biso 1.000000     N
    N   1.0     0.945596     0.265206     0.825552  Biso 1.000000     N
    N   1.0     0.946512     0.763401     0.826476  Biso 1.000000     N
    N   1.0     0.148810     0.205770     0.803934  Biso 1.000000     N
    N   1.0     0.148861     0.705378     0.801895  Biso 1.000000     N
    N   1.0     0.649235     0.204203     0.802265  Biso 1.000000     N
    N   1.0     0.647857     0.703677     0.801011  Biso 1.000000     N
    N   1.0     0.114552     0.243558     0.740141  Biso 1.000000     N
    N   1.0     0.116671     0.742288     0.736791  Biso 1.000000     N
    N   1.0     0.614441     0.242597     0.739193  Biso 1.000000     N
    N   1.0     0.613472     0.742135     0.737883  Biso 1.000000     N
    N   1.0     0.223851     0.293315     0.798671  Biso 1.000000     N
    N   1.0     0.224502     0.793147     0.799306  Biso 1.000000     N
    N   1.0     0.724138     0.291832     0.796742  Biso 1.000000     N
    N   1.0     0.723373     0.790809     0.795649  Biso 1.000000     N
    N   1.0     0.266442     0.212579     0.897610  Biso 1.000000     N
    N   1.0     0.263773     0.714156     0.900816  Biso 1.000000     N
    N   1.0     0.767479     0.210469     0.894743  Biso 1.000000     N
    N   1.0     0.766035     0.709476     0.893752  Biso 1.000000     N
    N   1.0     0.007452     0.104176     0.761215  Biso 1.000000     N
    N   1.0     0.008453     0.601539     0.757548  Biso 1.000000     N
    N   1.0     0.507724     0.103524     0.760308  Biso 1.000000     N
    N   1.0     0.505310     0.603092     0.759601  Biso 1.000000     N
    N   1.0     0.479774     0.133012     0.688806  Biso 1.000000     N
    N   1.0     0.477390     0.632608     0.688106  Biso 1.000000     N
    N   1.0     0.980281     0.132634     0.688899  Biso 1.000000     N
    N   1.0     0.980572     0.631937     0.686802  Biso 1.000000     N
    N   1.0     0.404562     0.045484     0.693884  Biso 1.000000     N
    N   1.0     0.402206     0.544854     0.693029  Biso 1.000000     N
    N   1.0     0.905684     0.044450     0.693687  Biso 1.000000     N
    N   1.0     0.905067     0.544283     0.690938  Biso 1.000000     N
    N   1.0     0.472776     0.008156     0.821161  Biso 1.000000     N
    N   1.0     0.470581     0.507792     0.820548  Biso 1.000000     N
    N   1.0     0.972636     0.008979     0.822407  Biso 1.000000     N
    N   1.0     0.973557     0.505729     0.817663  Biso 1.000000     N
    N   1.0     0.244900     0.046381     0.195892  Biso 1.000000     N
    N   1.0     0.245264     0.545488     0.192705  Biso 1.000000     N
    N   1.0     0.745244     0.044596     0.193483  Biso 1.000000     N
    N   1.0     0.744930     0.544660     0.192222  Biso 1.000000     N
    N   1.0     0.248797     0.012911     0.264515  Biso 1.000000     N
    N   1.0     0.246519     0.510699     0.260024  Biso 1.000000     N
    N   1.0     0.749491     0.010948     0.262083  Biso 1.000000     N
    N   1.0     0.748482     0.510673     0.260418  Biso 1.000000     N
    N   1.0     0.320220     0.456423     0.195407  Biso 1.000000     N
    N   1.0     0.319996     0.957812     0.197351  Biso 1.000000     N
    N   1.0     0.818587     0.455065     0.192278  Biso 1.000000     N
    N   1.0     0.819656     0.955553     0.193770  Biso 1.000000     N
    N   1.0     0.302301     0.029620     0.088365  Biso 1.000000     N
    N   1.0     0.307483     0.530497     0.089304  Biso 1.000000     N
    N   1.0     0.801930     0.027816     0.085308  Biso 1.000000     N
    N   1.0     0.802047     0.527925     0.084437  Biso 1.000000     N
    N   1.0     0.125786     0.149599     0.237916  Biso 1.000000     N
    N   1.0     0.123948     0.646960     0.233988  Biso 1.000000     N
    N   1.0     0.626900     0.148900     0.236774  Biso 1.000000     N
    N   1.0     0.627816     0.649488     0.236495  Biso 1.000000     N
    N   1.0     0.135013     0.122247     0.311041  Biso 1.000000     N
    N   1.0     0.133952     0.620348     0.307785  Biso 1.000000     N
    N   1.0     0.635937     0.120911     0.309540  Biso 1.000000     N
    N   1.0     0.636400     0.620833     0.308765  Biso 1.000000     N
    N   1.0     0.053182     0.205864     0.302518  Biso 1.000000     N
    N   1.0     0.053990     0.705665     0.300442  Biso 1.000000     N
    N   1.0     0.555737     0.206026     0.302676  Biso 1.000000     N
    N   1.0     0.557201     0.706640     0.303004  Biso 1.000000     N
    N   1.0     0.055672     0.239736     0.172414  Biso 1.000000     N
    N   1.0     0.055083     0.738375     0.169604  Biso 1.000000     N
    N   1.0     0.558535     0.240899     0.173102  Biso 1.000000     N
    N   1.0     0.560393     0.742460     0.173932  Biso 1.000000     N
    O   1.0     0.414044     0.375514     0.064712  Biso 1.000000     O
    O   1.0     0.410981     0.877779     0.066410  Biso 1.000000     O
    O   1.0     0.911435     0.374239     0.062726  Biso 1.000000     O
    O   1.0     0.911773     0.874224     0.062758  Biso 1.000000     O
    O   1.0     0.449871     0.202465     0.410099  Biso 1.000000     O
    O   1.0     0.450461     0.702131     0.409881  Biso 1.000000     O
    O   1.0     0.947005     0.202841     0.409977  Biso 1.000000     O
    O   1.0     0.949764     0.702944     0.409714  Biso 1.000000     O
    O   1.0     0.459736     0.186300     0.539215  Biso 1.000000     O
    O   1.0     0.459250     0.686141     0.538851  Biso 1.000000     O
    O   1.0     0.958333     0.186229     0.539301  Biso 1.000000     O
    O   1.0     0.960752     0.686710     0.539001  Biso 1.000000     O
    O   1.0     0.374429     0.352735     0.931596  Biso 1.000000     O
    O   1.0     0.372440     0.852659     0.933959  Biso 1.000000     O
    O   1.0     0.872654     0.349996     0.930096  Biso 1.000000     O
    O   1.0     0.872093     0.847663     0.930453  Biso 1.000000     O
    O   1.0     0.246800     0.052096     0.589154  Biso 1.000000     O
    O   1.0     0.244823     0.549909     0.586059  Biso 1.000000     O
    O   1.0     0.748357     0.049931     0.587831  Biso 1.000000     O
    O   1.0     0.747040     0.549735     0.586142  Biso 1.000000     O
    O   1.0     0.192741     0.069093     0.460502  Biso 1.000000     O
    O   1.0     0.191769     0.567362     0.457344  Biso 1.000000     O
    O   1.0     0.695006     0.067264     0.459175  Biso 1.000000     O
    O   1.0     0.693367     0.566876     0.457522  Biso 1.000000     O
    O   1.0     0.093992     0.100783     0.932402  Biso 1.000000     O
    O   1.0     0.087324     0.625802     0.931959  Biso 1.000000     O
    O   1.0     0.594467     0.097454     0.930149  Biso 1.000000     O
    O   1.0     0.593964     0.599116     0.929842  Biso 1.000000     O
    O   1.0     0.051727     0.297415     0.586743  Biso 1.000000     O
    O   1.0     0.051920     0.799636     0.586365  Biso 1.000000     O
    O   1.0     0.550358     0.299591     0.587254  Biso 1.000000     O
    O   1.0     0.548837     0.800060     0.587408  Biso 1.000000     O
    O   1.0     0.039219     0.315029     0.457502  Biso 1.000000     O
    O   1.0     0.040622     0.816136     0.457007  Biso 1.000000     O
    O   1.0     0.539787     0.316256     0.458106  Biso 1.000000     O
    O   1.0     0.539672     0.816365     0.458454  Biso 1.000000     O
    O   1.0     0.120244     0.125272     0.065119  Biso 1.000000     O
    O   1.0     0.127374     0.650113     0.064669  Biso 1.000000     O
    O   1.0     0.620332     0.122459     0.062696  Biso 1.000000     O
    O   1.0     0.620505     0.624226     0.062504  Biso 1.000000     O
    O   1.0     0.251937     0.450337     0.408093  Biso 1.000000     O
    O   1.0     0.252344     0.951726     0.411134  Biso 1.000000     O
    O   1.0     0.754320     0.450437     0.408048  Biso 1.000000     O
    O   1.0     0.755356     0.950201     0.409985  Biso 1.000000     O
    O   1.0     0.305752     0.433401     0.536785  Biso 1.000000     O
    O   1.0     0.306538     0.934861     0.539734  Biso 1.000000     O
    O   1.0     0.808261     0.433448     0.536702  Biso 1.000000     O
    O   1.0     0.809314     0.933464     0.538759  Biso 1.000000     O
    O   1.0     0.295520     0.386955     0.003230  Biso 1.000000     O
    O   1.0     0.292307     0.888371     0.003577  Biso 1.000000     O
    O   1.0     0.793615     0.388782    -0.000349  Biso 1.000000     O
    O   1.0     0.793910     0.888823     0.000000  Biso 1.000000     O
    O   1.0     0.207573     0.139213     0.002464  Biso 1.000000     O
    O   1.0     0.206624     0.617503     0.992874  Biso 1.000000     O
    O   1.0     0.707221     0.138276    -0.000193  Biso 1.000000     O
    O   1.0     0.707543     0.638011     0.999443  Biso 1.000000     O
   Zn   1.0     0.390412     0.385594     0.169586  Biso 1.000000    Zn
   Zn   1.0     0.390298     0.887452     0.172250  Biso 1.000000    Zn
   Zn   1.0     0.888777     0.384515     0.167259  Biso 1.000000    Zn
   Zn   1.0     0.890083     0.885427     0.167888  Biso 1.000000    Zn
   Zn   1.0     0.486880     0.275189     0.340493  Biso 1.000000    Zn
   Zn   1.0     0.488151     0.775127     0.340609  Biso 1.000000    Zn
   Zn   1.0     0.984541     0.275066     0.340135  Biso 1.000000    Zn
   Zn   1.0     0.986513     0.775490     0.339790  Biso 1.000000    Zn
   Zn   1.0     0.304417     0.366861     0.827333  Biso 1.000000    Zn
   Zn   1.0     0.304576     0.866972     0.829382  Biso 1.000000    Zn
   Zn   1.0     0.804208     0.366014     0.826163  Biso 1.000000    Zn
   Zn   1.0     0.804276     0.864141     0.826142  Biso 1.000000    Zn
   Zn   1.0     0.314405     0.475685     0.654108  Biso 1.000000    Zn
   Zn   1.0     0.316657     0.977408     0.657074  Biso 1.000000    Zn
   Zn   1.0     0.816905     0.476209     0.654032  Biso 1.000000    Zn
   Zn   1.0     0.818420     0.975392     0.656371  Biso 1.000000    Zn
   Zn   1.0     0.110187     0.116163     0.827251  Biso 1.000000    Zn
   Zn   1.0     0.109782     0.616357     0.826883  Biso 1.000000    Zn
   Zn   1.0     0.610965     0.114276     0.825709  Biso 1.000000    Zn
   Zn   1.0     0.608769     0.614057     0.823920  Biso 1.000000    Zn
   Zn   1.0     0.012759     0.227224     0.656724  Biso 1.000000    Zn
   Zn   1.0     0.014317     0.727233     0.656404  Biso 1.000000    Zn
   Zn   1.0     0.512332     0.227583     0.656708  Biso 1.000000    Zn
   Zn   1.0     0.510934     0.727360     0.656566  Biso 1.000000    Zn
   Zn   1.0     0.194719     0.135906     0.169829  Biso 1.000000    Zn
   Zn   1.0     0.196093     0.635769     0.169471  Biso 1.000000    Zn
   Zn   1.0     0.694461     0.133705     0.167163  Biso 1.000000    Zn
   Zn   1.0     0.695325     0.634516     0.166795  Biso 1.000000    Zn
   Zn   1.0     0.183964     0.027318     0.343145  Biso 1.000000    Zn
   Zn   1.0     0.182791     0.525387     0.340001  Biso 1.000000    Zn
   Zn   1.0     0.686034     0.025860     0.342006  Biso 1.000000    Zn
   Zn   1.0     0.684970     0.525442     0.340046  Biso 1.000000    Zn
