#======================================================================

# CRYSTAL DATA

#----------------------------------------------------------------------

data_VESTA_phase_1


_pd_phase_name                         MOF
_cell_length_a                         21.56500
_cell_length_b                         15.23000
_cell_length_c                         15.21700
_cell_angle_alpha                      117.71300
_cell_angle_beta                       94.79600
_cell_angle_gamma                      107.00700
_symmetry_space_group_name_H-M         "P 1"
_symmetry_Int_Tables_number            1

loop_
_symmetry_equiv_pos_as_xyz
   "x, y, z"

loop_
   _atom_site_label
   _atom_site_occupancy
   _atom_site_fract_x
   _atom_site_fract_y
   _atom_site_fract_z
   _atom_site_adp_type
   _atom_site_B_iso_or_equiv
   _atom_site_type_symbol
    H   1.0     0.063715     0.798924     0.684505  Biso 1.000000     H
    H   1.0     0.563762     0.798969     0.684554  Biso 1.000000     H
    H   1.0     0.163371     0.931908     0.683931  Biso 1.000000     H
    H   1.0     0.663434     0.931978     0.684033  Biso 1.000000     H
    H   1.0     0.094976     0.753576     0.352052  Biso 1.000000     H
    H   1.0     0.595127     0.753617     0.352135  Biso 1.000000     H
    H   1.0    -0.000552     0.627000     0.365938  Biso 1.000000     H
    H   1.0     0.499592     0.626998     0.365982  Biso 1.000000     H
    H   1.0     0.132556     0.955848     0.420839  Biso 1.000000     H
    H   1.0     0.632652     0.955948     0.421000  Biso 1.000000     H
    H   1.0     0.210370     0.739653     0.506187  Biso 1.000000     H
    H   1.0     0.710440     0.739744     0.506291  Biso 1.000000     H
    H   1.0     0.254656     0.658463     0.589638  Biso 1.000000     H
    H   1.0     0.754637     0.658532     0.589798  Biso 1.000000     H
    H   1.0     0.405729     0.947830     0.805400  Biso 1.000000     H
    H   1.0     0.905730     0.947856     0.805600  Biso 1.000000     H
    H   1.0     0.366318     0.044023     0.733010  Biso 1.000000     H
    H   1.0     0.866402     0.044077     0.733162  Biso 1.000000     H
    H   1.0     0.060092     0.087751     0.930565  Biso 1.000000     H
    H   1.0     0.560088     0.087700     0.930573  Biso 1.000000     H
    H   1.0     0.035811     0.983385     0.740940  Biso 1.000000     H
    H   1.0     0.535727     0.983330     0.740955  Biso 1.000000     H
    H   1.0     0.052606     0.274126     0.741974  Biso 1.000000     H
    H   1.0     0.552665     0.274145     0.742043  Biso 1.000000     H
    H   1.0     0.076045     0.366556     0.932193  Biso 1.000000     H
    H   1.0     0.576180     0.366574     0.932258  Biso 1.000000     H
    H   1.0     0.443491     0.931339     0.602012  Biso 1.000000     H
    H   1.0     0.943517     0.931370     0.602051  Biso 1.000000     H
    H   1.0     0.083440     0.272594     0.521747  Biso 1.000000     H
    H   1.0     0.583393     0.272507     0.521705  Biso 1.000000     H
    H   1.0     0.189067     0.430222     0.598264  Biso 1.000000     H
    H   1.0     0.688998     0.430200     0.598262  Biso 1.000000     H
    H   1.0     0.279192     0.313113     0.747555  Biso 1.000000     H
    H   1.0     0.779143     0.313194     0.747654  Biso 1.000000     H
    H   1.0     0.174921     0.151848     0.682151  Biso 1.000000     H
    H   1.0     0.674907     0.151845     0.682172  Biso 1.000000     H
    H   1.0     0.436281     0.201082     0.315487  Biso 1.000000     H
    H   1.0     0.936324     0.201128     0.315533  Biso 1.000000     H
    H   1.0     0.336608     0.068078     0.316011  Biso 1.000000     H
    H   1.0     0.836668     0.068145     0.316109  Biso 1.000000     H
    H   1.0     0.404922     0.246431     0.647908  Biso 1.000000     H
    H   1.0     0.905067     0.246478     0.647988  Biso 1.000000     H
    H   1.0     0.500455     0.373051     0.634060  Biso 1.000000     H
    H   1.0     0.000000     0.373052     0.634097  Biso 1.000000     H
    H   1.0     0.367391     0.044110     0.579051  Biso 1.000000     H
    H   1.0     0.867487     0.044202     0.579196  Biso 1.000000     H
    H   1.0     0.289608     0.260312     0.493756  Biso 1.000000     H
    H   1.0     0.789671     0.260405     0.493866  Biso 1.000000     H
    H   1.0     0.245413     0.341529     0.410254  Biso 1.000000     H
    H   1.0     0.745393     0.341593     0.410404  Biso 1.000000     H
    H   1.0     0.094317     0.052209     0.194448  Biso 1.000000     H
    H   1.0     0.594321     0.052230     0.194643  Biso 1.000000     H
    H   1.0     0.133641     0.955983     0.266883  Biso 1.000000     H
    H   1.0     0.633723     0.956036     0.267041  Biso 1.000000     H
    H   1.0     0.439946     0.912343     0.069471  Biso 1.000000     H
    H   1.0     0.939947     0.912291     0.069477  Biso 1.000000     H
    H   1.0     0.464314     0.016718     0.259091  Biso 1.000000     H
    H   1.0     0.964231     0.016660     0.259102  Biso 1.000000     H
    H   1.0     0.447383     0.725907     0.258007  Biso 1.000000     H
    H   1.0     0.947438     0.725923     0.258073  Biso 1.000000     H
    H   1.0     0.423859     0.633473     0.067790  Biso 1.000000     H
    H   1.0     0.923993     0.633489     0.067854  Biso 1.000000     H
    H   1.0     0.056525     0.068678     0.397994  Biso 1.000000     H
    H   1.0     0.556553     0.068710     0.398034  Biso 1.000000     H
    H   1.0     0.416648     0.727543     0.478343  Biso 1.000000     H
    H   1.0     0.916599     0.727453     0.478295  Biso 1.000000     H
    H   1.0     0.311044     0.569847     0.401780  Biso 1.000000     H
    H   1.0     0.810972     0.569823     0.401772  Biso 1.000000     H
    H   1.0     0.220899     0.686861     0.252394  Biso 1.000000     H
    H   1.0     0.720850     0.686938     0.252486  Biso 1.000000     H
    H   1.0     0.325138     0.848205     0.317872  Biso 1.000000     H
    H   1.0     0.825121     0.848204     0.317895  Biso 1.000000     H
    C   1.0     0.072460     0.792259     0.612481  Biso 1.000000     C
    C   1.0     0.572540     0.792310     0.612545  Biso 1.000000     C
    C   1.0     0.127942     0.865995     0.611482  Biso 1.000000     C
    C   1.0     0.628022     0.866057     0.611573  Biso 1.000000     C
    C   1.0     0.138317     0.853725     0.517257  Biso 1.000000     C
    C   1.0     0.638413     0.853791     0.517356  Biso 1.000000     C
    C   1.0     0.089564     0.768364     0.427751  Biso 1.000000     C
    C   1.0     0.589691     0.768402     0.427825  Biso 1.000000     C
    C   1.0     0.035943     0.697201     0.434838  Biso 1.000000     C
    C   1.0     0.536070     0.697222     0.434888  Biso 1.000000     C
    C   1.0     0.197214     0.926848     0.509683  Biso 1.000000     C
    C   1.0     0.697315     0.926931     0.509814  Biso 1.000000     C
    C   1.0     0.184758     0.973431     0.452952  Biso 1.000000     C
    C   1.0     0.684856     0.973530     0.453104  Biso 1.000000     C
    C   1.0     0.264457     0.953027     0.557911  Biso 1.000000     C
    C   1.0     0.764559     0.953106     0.558035  Biso 1.000000     C
    C   1.0     0.284724     0.900806     0.610715  Biso 1.000000     C
    C   1.0     0.784791     0.900890     0.610869  Biso 1.000000     C
    C   1.0     0.253248     0.790837     0.573216  Biso 1.000000     C
    C   1.0     0.753294     0.790921     0.573354  Biso 1.000000     C
    C   1.0     0.278362     0.743965     0.619438  Biso 1.000000     C
    C   1.0     0.778371     0.744026     0.619579  Biso 1.000000     C
    C   1.0     0.362399     0.904871     0.739063  Biso 1.000000     C
    C   1.0     0.862423     0.904907     0.739228  Biso 1.000000     C
    C   1.0     0.340111     0.957868     0.697387  Biso 1.000000     C
    C   1.0     0.840163     0.957931     0.697558  Biso 1.000000     C
    C   1.0     0.058427     0.126453     0.885978  Biso 1.000000     C
    C   1.0     0.558447     0.126424     0.886003  Biso 1.000000     C
    C   1.0     0.044511     0.068362     0.779396  Biso 1.000000     C
    C   1.0     0.544476     0.068324     0.779412  Biso 1.000000     C
    C   1.0     0.042401     0.119449     0.723115  Biso 1.000000     C
    C   1.0     0.542403     0.119431     0.723141  Biso 1.000000     C
    C   1.0     0.054386     0.229290     0.780171  Biso 1.000000     C
    C   1.0     0.554432     0.229289     0.780221  Biso 1.000000     C
    C   1.0     0.067519     0.281726     0.886654  Biso 1.000000     C
    C   1.0     0.567623     0.281734     0.886711  Biso 1.000000     C
    C   1.0     0.024342     0.058926     0.609035  Biso 1.000000     C
    C   1.0     0.524338     0.058922     0.609055  Biso 1.000000     C
    C   1.0     0.469570     0.960360     0.556763  Biso 1.000000     C
    C   1.0     0.969579     0.960363     0.556770  Biso 1.000000     C
    C   1.0     0.056422     0.099181     0.550364  Biso 1.000000     C
    C   1.0     0.556423     0.099158     0.550373  Biso 1.000000     C
    C   1.0     0.118822     0.196986     0.595735  Biso 1.000000     C
    C   1.0     0.618794     0.196981     0.595769  Biso 1.000000     C
    C   1.0     0.124937     0.277318     0.571976  Biso 1.000000     C
    C   1.0     0.624893     0.277278     0.571966  Biso 1.000000     C
    C   1.0     0.184575     0.366344     0.614383  Biso 1.000000     C
    C   1.0     0.684517     0.366322     0.614378  Biso 1.000000     C
    C   1.0     0.234161     0.301253     0.698070  Biso 1.000000     C
    C   1.0     0.734114     0.301277     0.698123  Biso 1.000000     C
    C   1.0     0.175706     0.211425     0.661160  Biso 1.000000     C
    C   1.0     0.675678     0.211426     0.661193  Biso 1.000000     C
    C   1.0     0.427502     0.207744     0.387498  Biso 1.000000     C
    C   1.0     0.927578     0.207799     0.387559  Biso 1.000000     C
    C   1.0     0.372023     0.133992     0.388471  Biso 1.000000     C
    C   1.0     0.872099     0.134058     0.388557  Biso 1.000000     C
    C   1.0     0.361631     0.146261     0.482688  Biso 1.000000     C
    C   1.0     0.861726     0.146325     0.482782  Biso 1.000000     C
    C   1.0     0.410358     0.231642     0.572217  Biso 1.000000     C
    C   1.0     0.910479     0.231689     0.572288  Biso 1.000000     C
    C   1.0     0.463972     0.302834     0.565155  Biso 1.000000     C
    C   1.0     0.964097     0.302852     0.565198  Biso 1.000000     C
    C   1.0     0.302728     0.073123     0.490232  Biso 1.000000     C
    C   1.0     0.802827     0.073208     0.490359  Biso 1.000000     C
    C   1.0     0.315187     0.026520     0.546939  Biso 1.000000     C
    C   1.0     0.815285     0.026620     0.547084  Biso 1.000000     C
    C   1.0     0.235486     0.046947     0.442006  Biso 1.000000     C
    C   1.0     0.735581     0.047041     0.442151  Biso 1.000000     C
    C   1.0     0.215256     0.099168     0.389177  Biso 1.000000     C
    C   1.0     0.715325     0.099248     0.389322  Biso 1.000000     C
    C   1.0     0.246753     0.209138     0.426695  Biso 1.000000     C
    C   1.0     0.746800     0.209218     0.426827  Biso 1.000000     C
    C   1.0     0.221676     0.256035     0.380472  Biso 1.000000     C
    C   1.0     0.721675     0.256098     0.380626  Biso 1.000000     C
    C   1.0     0.137623     0.095154     0.260820  Biso 1.000000     C
    C   1.0     0.637634     0.095197     0.261006  Biso 1.000000     C
    C   1.0     0.159881     0.042130     0.302490  Biso 1.000000     C
    C   1.0     0.659940     0.042188     0.302649  Biso 1.000000     C
    C   1.0     0.441601     0.873624     0.114044  Biso 1.000000     C
    C   1.0     0.941616     0.873592     0.114066  Biso 1.000000     C
    C   1.0     0.455559     0.931721     0.220634  Biso 1.000000     C
    C   1.0     0.955529     0.931683     0.220647  Biso 1.000000     C
    C   1.0     0.457632     0.880616     0.276906  Biso 1.000000     C
    C   1.0     0.957640     0.880598     0.276929  Biso 1.000000     C
    C   1.0     0.445608     0.770760     0.219828  Biso 1.000000     C
    C   1.0     0.945654     0.770756     0.219876  Biso 1.000000     C
    C   1.0     0.432428     0.718318     0.113339  Biso 1.000000     C
    C   1.0     0.932522     0.718319     0.113392  Biso 1.000000     C
    C   1.0     0.475710     0.941127     0.390993  Biso 1.000000     C
    C   1.0     0.975701     0.941121     0.391010  Biso 1.000000     C
    C   1.0     0.030462     0.039686     0.443275  Biso 1.000000     C
    C   1.0     0.530473     0.039692     0.443285  Biso 1.000000     C
    C   1.0     0.443623     0.900891     0.449672  Biso 1.000000     C
    C   1.0     0.943620     0.900869     0.449681  Biso 1.000000     C
    C   1.0     0.381247     0.803075     0.404285  Biso 1.000000     C
    C   1.0     0.881219     0.803064     0.404309  Biso 1.000000     C
    C   1.0     0.375149     0.722774     0.428083  Biso 1.000000     C
    C   1.0     0.875103     0.722731     0.428068  Biso 1.000000     C
    C   1.0     0.315527     0.633725     0.385662  Biso 1.000000     C
    C   1.0     0.815464     0.633704     0.385657  Biso 1.000000     C
    C   1.0     0.265929     0.698771     0.301918  Biso 1.000000     C
    C   1.0     0.765881     0.698796     0.301969  Biso 1.000000     C
    C   1.0     0.324365     0.788623     0.338851  Biso 1.000000     C
    C   1.0     0.824334     0.788629     0.338889  Biso 1.000000     C
    N   1.0     0.027338     0.706342     0.525390  Biso 1.000000     N
    N   1.0     0.527443     0.706382     0.525438  Biso 1.000000     N
    N   1.0     0.333069     0.798278     0.700137  Biso 1.000000     N
    N   1.0     0.833031     0.798329     0.700352  Biso 1.000000     N
    N   1.0     0.069860     0.232129     0.940394  Biso 1.000000     N
    N   1.0     0.569967     0.232132     0.940448  Biso 1.000000     N
    N   1.0     0.239471     0.379289     0.676110  Biso 1.000000     N
    N   1.0     0.739390     0.379329     0.676196  Biso 1.000000     N
    N   1.0     0.472602     0.293666     0.474604  Biso 1.000000     N
    N   1.0     0.972708     0.293706     0.474646  Biso 1.000000     N
    N   1.0     0.167019     0.201733     0.299695  Biso 1.000000     N
    N   1.0     0.666987     0.201780     0.299895  Biso 1.000000     N
    N   1.0     0.430061     0.767911     0.059599  Biso 1.000000     N
    N   1.0     0.930176     0.767913     0.059650  Biso 1.000000     N
    N   1.0     0.260652     0.620726     0.323856  Biso 1.000000     N
    N   1.0     0.760569     0.620761     0.323931  Biso 1.000000     N
   Cu   1.0     0.475210     0.572960     0.526518  Biso 1.000000    Cu
   Cu   1.0     0.974954     0.572809     0.526337  Biso 1.000000    Cu
   Cu   1.0     0.451985     0.616655     0.744200  Biso 1.000000    Cu
   Cu   1.0     0.951645     0.616303     0.743826  Biso 1.000000    Cu
   Cu   1.0     0.366648     0.715395     0.754433  Biso 1.000000    Cu
   Cu   1.0     0.866441     0.715416     0.754709  Biso 1.000000    Cu
   Cu   1.0     0.323768     0.517073     0.738892  Biso 1.000000    Cu
   Cu   1.0     0.823541     0.517152     0.739165  Biso 1.000000    Cu
   Cu   1.0     0.404195     0.687842     0.903857  Biso 1.000000    Cu
   Cu   1.0     0.904538     0.687925     0.903934  Biso 1.000000    Cu
   Cu   1.0     0.025083     0.427242     0.473694  Biso 1.000000    Cu
   Cu   1.0     0.524835     0.427088     0.473531  Biso 1.000000    Cu
   Cu   1.0     0.048399     0.383746     0.256226  Biso 1.000000    Cu
   Cu   1.0     0.548051     0.383387     0.255834  Biso 1.000000    Cu
   Cu   1.0     0.133607     0.284649     0.245350  Biso 1.000000    Cu
   Cu   1.0     0.633386     0.284670     0.245629  Biso 1.000000    Cu
   Cu   1.0     0.176503     0.482897     0.260866  Biso 1.000000    Cu
   Cu   1.0     0.676266     0.482980     0.261158  Biso 1.000000    Cu
   Cu   1.0     0.095511     0.312115     0.096110  Biso 1.000000    Cu
   Cu   1.0     0.595841     0.312199     0.096178  Biso 1.000000    Cu
    I   1.0     0.354321     0.532648     0.568764  Biso 1.000000     I
    I   1.0     0.854141     0.532664     0.568754  Biso 1.000000     I
    I   1.0     0.060705     0.585890     0.675442  Biso 1.000000     I
    I   1.0     0.560855     0.585862     0.675472  Biso 1.000000     I
    I   1.0    -0.005256     0.833715     0.864391  Biso 1.000000     I
    I   1.0     0.494819     0.833846     0.864458  Biso 1.000000     I
    I   1.0     0.423707     0.497412     0.837407  Biso 1.000000     I
    I   1.0     0.923589     0.497274     0.837340  Biso 1.000000     I
    I   1.0     0.274216     0.666801     0.849535  Biso 1.000000     I
    I   1.0     0.774278     0.666967     0.850039  Biso 1.000000     I
    I   1.0     0.145902     0.467394     0.431296  Biso 1.000000     I
    I   1.0     0.645726     0.467417     0.431283  Biso 1.000000     I
    I   1.0     0.439190     0.414188     0.324571  Biso 1.000000     I
    I   1.0     0.939331     0.414159     0.324592  Biso 1.000000     I
    I   1.0     0.505223     0.166191     0.135591  Biso 1.000000     I
    I   1.0     0.000000     0.166336     0.135655  Biso 1.000000     I
    I   1.0     0.076449     0.502767     0.162705  Biso 1.000000     I
    I   1.0     0.576332     0.502638     0.162635  Biso 1.000000     I
    I   1.0     0.225765     0.333087     0.149998  Biso 1.000000     I
    I   1.0     0.725814     0.333248     0.150504  Biso 1.000000     I
