#======================================================================

# CRYSTAL DATA

#----------------------------------------------------------------------

data_VESTA_phase_1


_pd_phase_name                         MOF
_cell_length_a                         13.21800
_cell_length_b                         13.20000
_cell_length_c                         18.51700
_cell_angle_alpha                      83.28400
_cell_angle_beta                       83.11000
_cell_angle_gamma                      67.65800
_symmetry_space_group_name_H-M         "P 1"
_symmetry_Int_Tables_number            1

loop_
_symmetry_equiv_pos_as_xyz
   "x, y, z"

loop_
   _atom_site_label
   _atom_site_occupancy
   _atom_site_fract_x
   _atom_site_fract_y
   _atom_site_fract_z
   _atom_site_adp_type
   _atom_site_B_iso_or_equiv
   _atom_site_type_symbol
    H   1.0     0.611767     0.380398     0.667306  Biso 1.000000     H
    H   1.0     0.450268     0.543741     0.626098  Biso 1.000000     H
    H   1.0     0.410120     0.186990     0.701990  Biso 1.000000     H
    H   1.0     0.819021     0.191596     0.925759  Biso 1.000000     H
    H   1.0     0.690202     0.939563     0.961889  Biso 1.000000     H
    H   1.0     0.072067     0.945068     0.647963  Biso 1.000000     H
    H   1.0     0.863984     0.765500     0.672637  Biso 1.000000     H
    H   1.0     0.619539     0.388244     0.832573  Biso 1.000000     H
    H   1.0     0.455445     0.549707     0.873541  Biso 1.000000     H
    H   1.0     0.811530     0.591277     0.798527  Biso 1.000000     H
    H   1.0     0.808204     0.182641     0.573795  Biso 1.000000     H
    H   1.0     0.060414     0.311018     0.538536  Biso 1.000000     H
    H   1.0     0.053008     0.928094     0.851199  Biso 1.000000     H
    H   1.0     0.233019     0.135744     0.827828  Biso 1.000000     H
    H   1.0     0.388250     0.619589     0.332719  Biso 1.000000     H
    H   1.0     0.549748     0.456247     0.373928  Biso 1.000000     H
    H   1.0     0.589901     0.812993     0.298031  Biso 1.000000     H
    H   1.0     0.181007     0.808381     0.074254  Biso 1.000000     H
    H   1.0     0.309851     0.060396     0.038132  Biso 1.000000     H
    H   1.0     0.927956     0.054908     0.352060  Biso 1.000000     H
    H   1.0     0.136029     0.234487     0.327374  Biso 1.000000     H
    H   1.0     0.380482     0.611738     0.167424  Biso 1.000000     H
    H   1.0     0.544585     0.450277     0.126464  Biso 1.000000     H
    H   1.0     0.188510     0.408687     0.201477  Biso 1.000000     H
    H   1.0     0.191807     0.817349     0.426225  Biso 1.000000     H
    H   1.0     0.939626     0.688932     0.461474  Biso 1.000000     H
    H   1.0     0.947050     0.071875     0.148821  Biso 1.000000     H
    H   1.0     0.767010     0.864253     0.172184  Biso 1.000000     H
    C   1.0     0.615384     0.176361     0.713370  Biso 1.000000     C
    C   1.0     0.520008     0.273980     0.687044  Biso 1.000000     C
    C   1.0     0.532291     0.374393     0.665228  Biso 1.000000     C
    C   1.0     0.442861     0.464712     0.642379  Biso 1.000000     C
    C   1.0     0.340209     0.456672     0.640102  Biso 1.000000     C
    C   1.0     0.327822     0.355496     0.661040  Biso 1.000000     C
    C   1.0     0.418096     0.265583     0.684869  Biso 1.000000     C
    C   1.0     0.247148     0.556428     0.616865  Biso 1.000000     C
    C   1.0     0.223107     0.335882     0.658150  Biso 1.000000     C
    C   1.0     0.792530     0.125437     0.918450  Biso 1.000000     C
    C   1.0     0.726009    -0.001530     0.937569  Biso 1.000000     C
    C   1.0     0.003422     0.919086     0.663909  Biso 1.000000     C
    C   1.0     0.898187     0.827501     0.675968  Biso 1.000000     C
    C   1.0     0.823511     0.385104     0.787125  Biso 1.000000     C
    C   1.0     0.725395     0.480595     0.813256  Biso 1.000000     C
    C   1.0     0.625100     0.468003     0.834778  Biso 1.000000     C
    C   1.0     0.534332     0.557455     0.857487  Biso 1.000000     C
    C   1.0     0.541693     0.660531     0.859919  Biso 1.000000     C
    C   1.0     0.642713     0.673269     0.839208  Biso 1.000000     C
    C   1.0     0.733105     0.582937     0.815519  Biso 1.000000     C
    C   1.0     0.441376     0.753539     0.883019  Biso 1.000000     C
    C   1.0     0.661818     0.778432     0.841949  Biso 1.000000     C
    C   1.0     0.874324     0.208960     0.581304  Biso 1.000000     C
    C   1.0     0.000000     0.275372     0.562641  Biso 1.000000     C
    C   1.0     0.079301     0.996617     0.835505  Biso 1.000000     C
    C   1.0     0.171075     0.101686     0.824115  Biso 1.000000     C
    C   1.0     0.384637     0.823626     0.286653  Biso 1.000000     C
    C   1.0     0.480010     0.726007     0.312982  Biso 1.000000     C
    C   1.0     0.467726     0.625594     0.334797  Biso 1.000000     C
    C   1.0     0.557157     0.535274     0.357644  Biso 1.000000     C
    C   1.0     0.659809     0.543313     0.359919  Biso 1.000000     C
    C   1.0     0.672198     0.644488     0.338981  Biso 1.000000     C
    C   1.0     0.581924     0.734402     0.315153  Biso 1.000000     C
    C   1.0     0.752871     0.443555     0.383155  Biso 1.000000     C
    C   1.0     0.776914     0.664102     0.341871  Biso 1.000000     C
    C   1.0     0.207503     0.874536     0.081565  Biso 1.000000     C
    C   1.0     0.274036     0.000000     0.062450  Biso 1.000000     C
    C   1.0     0.996599     0.080891     0.336112  Biso 1.000000     C
    C   1.0     0.101829     0.172483     0.324046  Biso 1.000000     C
    C   1.0     0.176508     0.614875     0.212859  Biso 1.000000     C
    C   1.0     0.274635     0.519378     0.186747  Biso 1.000000     C
    C   1.0     0.374928     0.531974     0.165225  Biso 1.000000     C
    C   1.0     0.465700     0.442525     0.142515  Biso 1.000000     C
    C   1.0     0.458345     0.339446     0.140087  Biso 1.000000     C
    C   1.0     0.357330     0.326700     0.160802  Biso 1.000000     C
    C   1.0     0.266933     0.417031     0.184488  Biso 1.000000     C
    C   1.0     0.558665     0.246440     0.116989  Biso 1.000000     C
    C   1.0     0.338222     0.221538     0.158067  Biso 1.000000     C
    C   1.0     0.125697     0.791015     0.418713  Biso 1.000000     C
    C   1.0    -0.001267     0.724580     0.437371  Biso 1.000000     C
    C   1.0     0.920746     0.003359     0.164513  Biso 1.000000     C
    C   1.0     0.828957     0.898303     0.175901  Biso 1.000000     C
    N   1.0     0.795576     0.089615     0.853859  Biso 1.000000     N
    N   1.0     0.752677     0.000000     0.866254  Biso 1.000000     N
    N   1.0     0.750077     0.070356     0.972742  Biso 1.000000     N
    N   1.0     0.916140     0.973728     0.706881  Biso 1.000000     N
    N   1.0     0.848773     0.914793     0.714279  Biso 1.000000     N
    N   1.0    -0.004007     0.826719     0.642903  Biso 1.000000     N
    N   1.0     0.910206     0.205028     0.645923  Biso 1.000000     N
    N   1.0    -0.008582     0.247891     0.633812  Biso 1.000000     N
    N   1.0     0.929326     0.252000     0.527270  Biso 1.000000     N
    N   1.0     0.025580     0.083813     0.792401  Biso 1.000000     N
    N   1.0     0.084606     0.151062     0.785431  Biso 1.000000     N
    N   1.0     0.171152     0.000000     0.857023  Biso 1.000000     N
    N   1.0     0.204452     0.910360     0.146157  Biso 1.000000     N
    N   1.0     0.247357    -0.008414     0.133764  Biso 1.000000     N
    N   1.0     0.249966     0.929611     0.027275  Biso 1.000000     N
    N   1.0     0.083881     0.026250     0.293140  Biso 1.000000     N
    N   1.0     0.151244     0.085188     0.285737  Biso 1.000000     N
    N   1.0     0.000000     0.173262     0.357113  Biso 1.000000     N
    N   1.0     0.089831     0.794931     0.354091  Biso 1.000000     N
    N   1.0     0.000000     0.752050     0.366198  Biso 1.000000     N
    N   1.0     0.070696     0.747972     0.472745  Biso 1.000000     N
    N   1.0     0.974455     0.916162     0.207621  Biso 1.000000     N
    N   1.0     0.915420     0.848923     0.214590  Biso 1.000000     N
    N   1.0     0.828893    -0.004036     0.142992  Biso 1.000000     N
    O   1.0     0.709535     0.182393     0.703772  Biso 1.000000     O
    O   1.0     0.593415     0.093521     0.743239  Biso 1.000000     O
    O   1.0     0.149873     0.555601     0.618980  Biso 1.000000     O
    O   1.0     0.262616     0.646161     0.594424  Biso 1.000000     O
    O   1.0     0.199190     0.315549     0.600162  Biso 1.000000     O
    O   1.0     0.169247     0.333871     0.721825  Biso 1.000000     O
    O   1.0     0.817472     0.290868     0.796164  Biso 1.000000     O
    O   1.0     0.906763     0.406979     0.757996  Biso 1.000000     O
    O   1.0     0.441309     0.851268     0.880695  Biso 1.000000     O
    O   1.0     0.352020     0.737400     0.905626  Biso 1.000000     O
    O   1.0     0.679992     0.804221     0.899993  Biso 1.000000     O
    O   1.0     0.665993     0.830696     0.778005  Biso 1.000000     O
    O   1.0     0.290486     0.817591     0.296246  Biso 1.000000     O
    O   1.0     0.406608     0.906462     0.256781  Biso 1.000000     O
    O   1.0     0.850146     0.444382     0.381041  Biso 1.000000     O
    O   1.0     0.737401     0.353823     0.405596  Biso 1.000000     O
    O   1.0     0.800832     0.684432     0.399858  Biso 1.000000     O
    O   1.0     0.830773     0.666109     0.278195  Biso 1.000000     O
    O   1.0     0.182568     0.709103     0.203858  Biso 1.000000     O
    O   1.0     0.093214     0.593019     0.241918  Biso 1.000000     O
    O   1.0     0.558745     0.148704     0.119332  Biso 1.000000     O
    O   1.0     0.648017     0.262585     0.094373  Biso 1.000000     O
    O   1.0     0.320042     0.195751     0.100024  Biso 1.000000     O
    O   1.0     0.334033     0.169282     0.222013  Biso 1.000000     O
   Zn   1.0     0.706638     0.956348     0.781489  Biso 1.000000    Zn
   Zn   1.0     0.098509     0.716198     0.577642  Biso 1.000000    Zn
   Zn   1.0     0.043556     0.293432     0.718679  Biso 1.000000    Zn
   Zn   1.0     0.280590     0.901703     0.922344  Biso 1.000000    Zn
   Zn   1.0     0.293382     0.043633     0.218530  Biso 1.000000    Zn
   Zn   1.0     0.901508     0.283784     0.422375  Biso 1.000000    Zn
   Zn   1.0     0.956471     0.706541     0.281332  Biso 1.000000    Zn
   Zn   1.0     0.719453     0.098279     0.077671  Biso 1.000000    Zn
   Zn   1.0     0.862022     0.137877     0.749865  Biso 1.000000    Zn
   Zn   1.0     0.138002     0.862102     0.250153  Biso 1.000000    Zn
