#======================================================================

# CRYSTAL DATA

#----------------------------------------------------------------------

data_VESTA_phase_1


_pd_phase_name                         MOF
_cell_length_a                         15.75000
_cell_length_b                         15.74800
_cell_length_c                         16.41400
_cell_angle_alpha                      89.99900
_cell_angle_beta                       89.99900
_cell_angle_gamma                      119.96600
_symmetry_space_group_name_H-M         "P 1"
_symmetry_Int_Tables_number            1

loop_
_symmetry_equiv_pos_as_xyz
   "x, y, z"

loop_
   _atom_site_label
   _atom_site_occupancy
   _atom_site_fract_x
   _atom_site_fract_y
   _atom_site_fract_z
   _atom_site_adp_type
   _atom_site_B_iso_or_equiv
   _atom_site_type_symbol
    H   1.0     0.017033     0.551581     0.785185  Biso 1.000000     H
    H   1.0     0.156586     0.630815     0.035240  Biso 1.000000     H
    H   1.0     0.952942     0.614306     0.852418  Biso 1.000000     H
    H   1.0     0.052515     0.645293     0.143484  Biso 1.000000     H
    H   1.0     0.849568     0.627936     0.958196  Biso 1.000000     H
    H   1.0     0.222110     0.516712     0.608566  Biso 1.000000     H
    H   1.0     0.940675     0.454449     0.701564  Biso 1.000000     H
    H   1.0     0.142629     0.425046     0.482196  Biso 1.000000     H
    H   1.0     0.861832     0.367170     0.575565  Biso 1.000000     H
    H   1.0     0.534468     0.982921     0.785155  Biso 1.000000     H
    H   1.0     0.474298     0.843439     0.035260  Biso 1.000000     H
    H   1.0     0.661260     0.046984     0.852402  Biso 1.000000     H
    H   1.0     0.592776     0.947485     0.143483  Biso 1.000000     H
    H   1.0     0.778195     0.150322     0.958163  Biso 1.000000     H
    H   1.0     0.294601     0.777851     0.608637  Biso 1.000000     H
    H   1.0     0.513650     0.059243     0.701544  Biso 1.000000     H
    H   1.0     0.282423     0.857350     0.482227  Biso 1.000000     H
    H   1.0     0.505219     0.138101     0.575505  Biso 1.000000     H
    H   1.0     0.448417     0.465411     0.785157  Biso 1.000000     H
    H   1.0     0.369149     0.525760     0.035249  Biso 1.000000     H
    H   1.0     0.385700     0.338627     0.852418  Biso 1.000000     H
    H   1.0     0.354662     0.407203     0.143485  Biso 1.000000     H
    H   1.0     0.372061     0.221617     0.958191  Biso 1.000000     H
    H   1.0     0.483220     0.705424     0.608617  Biso 1.000000     H
    H   1.0     0.545537     0.486184     0.701535  Biso 1.000000     H
    H   1.0     0.574926     0.717600     0.482245  Biso 1.000000     H
    H   1.0     0.632861     0.494616     0.575533  Biso 1.000000     H
    H   1.0     0.982945     0.448428     0.214830  Biso 1.000000     H
    H   1.0     0.843363     0.369146     0.964764  Biso 1.000000     H
    H   1.0     0.047059     0.385767     0.147588  Biso 1.000000     H
    H   1.0     0.947431     0.354651     0.856528  Biso 1.000000     H
    H   1.0     0.150428     0.372120     0.041819  Biso 1.000000     H
    H   1.0     0.777843     0.483248     0.391446  Biso 1.000000     H
    H   1.0     0.059298     0.545600     0.298444  Biso 1.000000     H
    H   1.0     0.857306     0.574904     0.517829  Biso 1.000000     H
    H   1.0     0.138127     0.632879     0.424454  Biso 1.000000     H
    H   1.0     0.465480     0.017043     0.214853  Biso 1.000000     H
    H   1.0     0.525671     0.156507     0.964745  Biso 1.000000     H
    H   1.0     0.338694     0.952972     0.147600  Biso 1.000000     H
    H   1.0     0.407183     0.052483     0.856523  Biso 1.000000     H
    H   1.0     0.221753     0.849648     0.041840  Biso 1.000000     H
    H   1.0     0.705348     0.222123     0.391394  Biso 1.000000     H
    H   1.0     0.486256     0.940746     0.298486  Biso 1.000000     H
    H   1.0     0.717537     0.142607     0.517782  Biso 1.000000     H
    H   1.0     0.494696     0.861873     0.424502  Biso 1.000000     H
    H   1.0     0.551563     0.534553     0.214869  Biso 1.000000     H
    H   1.0     0.630799     0.474209     0.964773  Biso 1.000000     H
    H   1.0     0.614309     0.661358     0.147621  Biso 1.000000     H
    H   1.0     0.645248     0.592757     0.856540  Biso 1.000000     H
    H   1.0     0.627926     0.778368     0.041850  Biso 1.000000     H
    H   1.0     0.516728     0.294521     0.391383  Biso 1.000000     H
    H   1.0     0.454418     0.513771     0.298484  Biso 1.000000     H
    H   1.0     0.425028     0.282342     0.517760  Biso 1.000000     H
    H   1.0     0.367109     0.505346     0.424495  Biso 1.000000     H
    C   1.0     0.140837     0.543765     0.740241  Biso 1.000000     C
    C   1.0     0.093722     0.575666     0.796987  Biso 1.000000     C
    C   1.0     0.128541     0.611322     0.877461  Biso 1.000000     C
    C   1.0     0.061793     0.619465     0.936988  Biso 1.000000     C
    C   1.0     0.088964     0.630068     0.019871  Biso 1.000000     C
    C   1.0     0.974685     0.619246     0.916028  Biso 1.000000     C
    C   1.0     0.031532     0.638360     0.079543  Biso 1.000000     C
    C   1.0     0.916527     0.628026     0.974918  Biso 1.000000     C
    C   1.0     0.944251     0.637746     0.057855  Biso 1.000000     C
    C   1.0     0.887357     0.647945     0.119078  Biso 1.000000     C
    C   1.0     0.088287     0.492103     0.665185  Biso 1.000000     C
    C   1.0     0.143096     0.482511     0.601067  Biso 1.000000     C
    C   1.0     0.986073     0.449495     0.653850  Biso 1.000000     C
    C   1.0     0.098934     0.431982     0.530415  Biso 1.000000     C
    C   1.0     0.940689     0.399294     0.583212  Biso 1.000000     C
    C   1.0     0.996303     0.388978     0.520134  Biso 1.000000     C
    C   1.0     0.949693     0.337512     0.448628  Biso 1.000000     C
    C   1.0     0.402903     0.859149     0.740283  Biso 1.000000     C
    C   1.0     0.481896     0.906244     0.796997  Biso 1.000000     C
    C   1.0     0.482762     0.871448     0.877492  Biso 1.000000     C
    C   1.0     0.557650     0.938190     0.936989  Biso 1.000000     C
    C   1.0     0.541126     0.911041     0.019877  Biso 1.000000     C
    C   1.0     0.644464     0.025239     0.916012  Biso 1.000000     C
    C   1.0     0.606817     0.968459     0.079539  Biso 1.000000     C
    C   1.0     0.711371     0.083380     0.974894  Biso 1.000000     C
    C   1.0     0.693402     0.055679     0.057838  Biso 1.000000     C
    C   1.0     0.760444     0.112582     0.119057  Biso 1.000000     C
    C   1.0     0.403779     0.911686     0.665193  Biso 1.000000     C
    C   1.0     0.339403     0.856865     0.601102  Biso 1.000000     C
    C   1.0     0.463323     0.013858     0.653838  Biso 1.000000     C
    C   1.0     0.333036     0.901033     0.530434  Biso 1.000000     C
    C   1.0     0.458505     0.059247     0.583182  Biso 1.000000     C
    C   1.0     0.392613     0.003629     0.520126  Biso 1.000000     C
    C   1.0     0.387737     0.050239     0.448602  Biso 1.000000     C
    C   1.0     0.456174     0.597030     0.740259  Biso 1.000000     C
    C   1.0     0.424327     0.518037     0.796993  Biso 1.000000     C
    C   1.0     0.388675     0.517209     0.877476  Biso 1.000000     C
    C   1.0     0.380546     0.442322     0.936990  Biso 1.000000     C
    C   1.0     0.369905     0.458881     0.019875  Biso 1.000000     C
    C   1.0     0.380750     0.355432     0.916028  Biso 1.000000     C
    C   1.0     0.361625     0.393163     0.079545  Biso 1.000000     C
    C   1.0     0.371983     0.288500     0.974916  Biso 1.000000     C
    C   1.0     0.362224     0.306495     0.057854  Biso 1.000000     C
    C   1.0     0.352041     0.239418     0.119078  Biso 1.000000     C
    C   1.0     0.507849     0.596149     0.665183  Biso 1.000000     C
    C   1.0     0.517414     0.660566     0.601092  Biso 1.000000     C
    C   1.0     0.550485     0.536544     0.653831  Biso 1.000000     C
    C   1.0     0.567978     0.666945     0.530446  Biso 1.000000     C
    C   1.0     0.600717     0.541368     0.583195  Biso 1.000000     C
    C   1.0     0.610998     0.607305     0.520142  Biso 1.000000     C
    C   1.0     0.662486     0.612176     0.448628  Biso 1.000000     C
    C   1.0     0.859134     0.456232     0.259763  Biso 1.000000     C
    C   1.0     0.906265     0.424364     0.203014  Biso 1.000000     C
    C   1.0     0.871437     0.388696     0.122542  Biso 1.000000     C
    C   1.0     0.938190     0.380573     0.063015  Biso 1.000000     C
    C   1.0     0.910991     0.369906     0.980136  Biso 1.000000     C
    C   1.0     0.025301     0.380794     0.083980  Biso 1.000000     C
    C   1.0     0.968436     0.361631     0.920466  Biso 1.000000     C
    C   1.0     0.083471     0.372032     0.025092  Biso 1.000000     C
    C   1.0     0.055708     0.362230     0.942159  Biso 1.000000     C
    C   1.0     0.112622     0.352065     0.880934  Biso 1.000000     C
    C   1.0     0.911687     0.507917     0.334832  Biso 1.000000     C
    C   1.0     0.856854     0.517443     0.398957  Biso 1.000000     C
    C   1.0     0.013894     0.550532     0.346164  Biso 1.000000     C
    C   1.0     0.901009     0.567985     0.469608  Biso 1.000000     C
    C   1.0     0.059270     0.600743     0.416805  Biso 1.000000     C
    C   1.0     0.003638     0.611011     0.479885  Biso 1.000000     C
    C   1.0     0.050235     0.662487     0.551401  Biso 1.000000     C
    C   1.0     0.597034     0.140832     0.259741  Biso 1.000000     C
    C   1.0     0.518058     0.093716     0.203006  Biso 1.000000     C
    C   1.0     0.517185     0.128504     0.122517  Biso 1.000000     C
    C   1.0     0.442303     0.061770     0.063022  Biso 1.000000     C
    C   1.0     0.458840     0.088907     0.980128  Biso 1.000000     C
    C   1.0     0.355492     0.974712     0.083988  Biso 1.000000     C
    C   1.0     0.393140     0.031506     0.920467  Biso 1.000000     C
    C   1.0     0.288579     0.916586     0.025108  Biso 1.000000     C
    C   1.0     0.306550     0.944283     0.942161  Biso 1.000000     C
    C   1.0     0.239480     0.887412     0.880953  Biso 1.000000     C
    C   1.0     0.596151     0.088303     0.334824  Biso 1.000000     C
    C   1.0     0.660544     0.143108     0.398917  Biso 1.000000     C
    C   1.0     0.536594     0.986125     0.346188  Biso 1.000000     C
    C   1.0     0.666911     0.098932     0.469580  Biso 1.000000     C
    C   1.0     0.541408     0.940729     0.416837  Biso 1.000000     C
    C   1.0     0.607334     0.996332     0.479887  Biso 1.000000     C
    C   1.0     0.612198     0.949708     0.551398  Biso 1.000000     C
    C   1.0     0.543765     0.402910     0.259755  Biso 1.000000     C
    C   1.0     0.575658     0.481928     0.203043  Biso 1.000000     C
    C   1.0     0.611317     0.482764     0.122554  Biso 1.000000     C
    C   1.0     0.619465     0.557674     0.063040  Biso 1.000000     C
    C   1.0     0.630033     0.541081     0.980151  Biso 1.000000     C
    C   1.0     0.619223     0.644541     0.084008  Biso 1.000000     C
    C   1.0     0.638328     0.606813     0.920485  Biso 1.000000     C
    C   1.0     0.628014     0.711490     0.025123  Biso 1.000000     C
    C   1.0     0.637709     0.693464     0.942184  Biso 1.000000     C
    C   1.0     0.647911     0.760552     0.880957  Biso 1.000000     C
    C   1.0     0.492085     0.403789     0.334819  Biso 1.000000     C
    C   1.0     0.482525     0.339371     0.398910  Biso 1.000000     C
    C   1.0     0.449474     0.463413     0.346188  Biso 1.000000     C
    C   1.0     0.431978     0.333003     0.469564  Biso 1.000000     C
    C   1.0     0.399261     0.458602     0.416830  Biso 1.000000     C
    C   1.0     0.388955     0.392641     0.479871  Biso 1.000000     C
    C   1.0     0.337472     0.387764     0.551386  Biso 1.000000     C
    N   1.0     0.909030     0.292241     0.390252  Biso 1.000000     N
    N   1.0     0.843627     0.659956     0.171459  Biso 1.000000     N
    N   1.0     0.383081     0.090896     0.390226  Biso 1.000000     N
    N   1.0     0.816118     0.156329     0.171442  Biso 1.000000     N
    N   1.0     0.707808     0.616852     0.390258  Biso 1.000000     N
    N   1.0     0.340027     0.183700     0.171477  Biso 1.000000     N
    N   1.0     0.090878     0.707782     0.609768  Biso 1.000000     N
    N   1.0     0.156384     0.340125     0.828541  Biso 1.000000     N
    N   1.0     0.616822     0.909005     0.609759  Biso 1.000000     N
    N   1.0     0.183763     0.843704     0.828579  Biso 1.000000     N
    N   1.0     0.292211     0.383135     0.609786  Biso 1.000000     N
    N   1.0     0.659881     0.816240     0.828550  Biso 1.000000     N
    O   1.0     0.228122     0.557082     0.749868  Biso 1.000000     O
    O   1.0     0.214029     0.635179     0.903305  Biso 1.000000     O
    O   1.0     0.328955     0.771907     0.749918  Biso 1.000000     O
    O   1.0     0.421164     0.785975     0.903340  Biso 1.000000     O
    O   1.0     0.442855     0.671015     0.749893  Biso 1.000000     O
    O   1.0     0.364789     0.578858     0.903309  Biso 1.000000     O
    O   1.0     0.771856     0.442908     0.250149  Biso 1.000000     O
    O   1.0     0.785936     0.364821     0.096721  Biso 1.000000     O
    O   1.0     0.670975     0.228097     0.250103  Biso 1.000000     O
    O   1.0     0.578790     0.213978     0.096657  Biso 1.000000     O
    O   1.0     0.557072     0.328918     0.250108  Biso 1.000000     O
    O   1.0     0.635145     0.421090     0.096689  Biso 1.000000     O
   Zn   1.0     0.333314     0.666699     0.830314  Biso 1.000000    Zn
   Zn   1.0     0.666612     0.333249     0.169691  Biso 1.000000    Zn
   Ag   1.0     0.846563     0.264979     0.267650  Biso 1.000000    Ag
   Ag   1.0     0.418391     0.153378     0.267626  Biso 1.000000    Ag
   Ag   1.0     0.734933     0.581582     0.267598  Biso 1.000000    Ag
   Ag   1.0     0.153343     0.735013     0.732400  Biso 1.000000    Ag
   Ag   1.0     0.581568     0.846589     0.732365  Biso 1.000000    Ag
   Ag   1.0     0.265024     0.418423     0.732390  Biso 1.000000    Ag
