#======================================================================

# CRYSTAL DATA

#----------------------------------------------------------------------

data_VESTA_phase_1


_pd_phase_name                         MOF
_cell_length_a                         21.60800
_cell_length_b                         21.61800
_cell_length_c                         18.38900
_cell_angle_alpha                      73.81000
_cell_angle_beta                       73.85000
_cell_angle_gamma                      77.84100
_symmetry_space_group_name_H-M         "P 1"
_symmetry_Int_Tables_number            1

loop_
_symmetry_equiv_pos_as_xyz
   "x, y, z"

loop_
   _atom_site_label
   _atom_site_occupancy
   _atom_site_fract_x
   _atom_site_fract_y
   _atom_site_fract_z
   _atom_site_adp_type
   _atom_site_B_iso_or_equiv
   _atom_site_type_symbol
    H   1.0     0.106335     0.216927     0.414191  Biso 1.000000     H
    H   1.0     0.106571     0.716554     0.414352  Biso 1.000000     H
    H   1.0     0.606568     0.216844     0.414505  Biso 1.000000     H
    H   1.0     0.606668     0.716896     0.414369  Biso 1.000000     H
    H   1.0     0.442133     0.244874     0.274107  Biso 1.000000     H
    H   1.0     0.442652     0.744626     0.274115  Biso 1.000000     H
    H   1.0     0.942095     0.245191     0.274243  Biso 1.000000     H
    H   1.0     0.942536     0.744946     0.274245  Biso 1.000000     H
    H   1.0     0.497542     0.291365     0.614084  Biso 1.000000     H
    H   1.0     0.497647     0.791251     0.614061  Biso 1.000000     H
    H   1.0     0.997809     0.291262     0.614054  Biso 1.000000     H
    H   1.0     0.998038     0.790890     0.614218  Biso 1.000000     H
    H   1.0     0.401308     0.319959     0.047110  Biso 1.000000     H
    H   1.0     0.401510     0.819725     0.047292  Biso 1.000000     H
    H   1.0     0.901309     0.320128     0.047215  Biso 1.000000     H
    H   1.0     0.901639     0.819537     0.047258  Biso 1.000000     H
    H   1.0     0.020659     0.318594    -0.013243  Biso 1.000000     H
    H   1.0     0.020986     0.818289    -0.013276  Biso 1.000000     H
    H   1.0     0.520672     0.318530    -0.013312  Biso 1.000000     H
    H   1.0     0.520833     0.818426    -0.013369  Biso 1.000000     H
    H   1.0     0.062017     0.241218     0.212836  Biso 1.000000     H
    H   1.0     0.062462     0.741366     0.212786  Biso 1.000000     H
    H   1.0     0.562041     0.241030     0.212748  Biso 1.000000     H
    H   1.0     0.562535     0.740951     0.212530  Biso 1.000000     H
    H   1.0     0.282567     0.393361     0.086257  Biso 1.000000     H
    H   1.0     0.282635     0.893557     0.086282  Biso 1.000000     H
    H   1.0     0.782537     0.393478     0.085874  Biso 1.000000     H
    H   1.0     0.782712     0.893689     0.086334  Biso 1.000000     H
    H   1.0     0.255004     0.057448     0.226012  Biso 1.000000     H
    H   1.0     0.255264     0.557630     0.225993  Biso 1.000000     H
    H   1.0     0.755139     0.057891     0.225773  Biso 1.000000     H
    H   1.0     0.754936     0.558128     0.226088  Biso 1.000000     H
    H   1.0     0.209421     0.001908     0.885363  Biso 1.000000     H
    H   1.0     0.209296     0.502345     0.885592  Biso 1.000000     H
    H   1.0     0.709490     0.002065     0.885441  Biso 1.000000     H
    H   1.0     0.709140     0.502464     0.885293  Biso 1.000000     H
    H   1.0     0.180675     0.098133     0.453020  Biso 1.000000     H
    H   1.0     0.180394     0.598383     0.452937  Biso 1.000000     H
    H   1.0     0.680311     0.098448     0.452815  Biso 1.000000     H
    H   1.0     0.679917     0.598840     0.453049  Biso 1.000000     H
    H   1.0     0.181545     0.479057     0.513422  Biso 1.000000     H
    H   1.0     0.181638     0.978828     0.513487  Biso 1.000000     H
    H   1.0     0.681057     0.479509     0.513478  Biso 1.000000     H
    H   1.0     0.681389     0.979136     0.513173  Biso 1.000000     H
    H   1.0     0.258719     0.437745     0.287401  Biso 1.000000     H
    H   1.0     0.258303     0.937559     0.287398  Biso 1.000000     H
    H   1.0     0.758413     0.438256     0.287448  Biso 1.000000     H
    H   1.0     0.758582     0.937998     0.287070  Biso 1.000000     H
    H   1.0     0.393347     0.283076     0.585595  Biso 1.000000     H
    H   1.0     0.393447     0.783124     0.585463  Biso 1.000000     H
    H   1.0     0.893443     0.283410     0.585638  Biso 1.000000     H
    H   1.0     0.893675     0.783064     0.585774  Biso 1.000000     H
    H   1.0     0.057468     0.255046     0.725724  Biso 1.000000     H
    H   1.0     0.057912     0.754793     0.725722  Biso 1.000000     H
    H   1.0     0.557340     0.255363     0.725863  Biso 1.000000     H
    H   1.0     0.557881     0.755093     0.725871  Biso 1.000000     H
    H   1.0     0.001970     0.209100     0.385751  Biso 1.000000     H
    H   1.0     0.002208     0.708706     0.385929  Biso 1.000000     H
    H   1.0     0.502369     0.208705     0.385915  Biso 1.000000     H
    H   1.0     0.502473     0.708618     0.385874  Biso 1.000000     H
    H   1.0     0.098375     0.180448     0.952705  Biso 1.000000     H
    H   1.0     0.098694     0.679856     0.952752  Biso 1.000000     H
    H   1.0     0.598492     0.180263     0.952680  Biso 1.000000     H
    H   1.0     0.598711     0.680009     0.952865  Biso 1.000000     H
    H   1.0     0.479172     0.181542     0.000000  Biso 1.000000     H
    H   1.0     0.479347     0.681442     0.000000  Biso 1.000000     H
    H   1.0     0.979029     0.181687     0.000000  Biso 1.000000     H
    H   1.0     0.979344     0.681394     0.000000  Biso 1.000000     H
    H   1.0     0.437458     0.259019     0.787453  Biso 1.000000     H
    H   1.0     0.437974     0.758941     0.787234  Biso 1.000000     H
    H   1.0     0.937544     0.258616     0.787188  Biso 1.000000     H
    H   1.0     0.937989     0.758769     0.787127  Biso 1.000000     H
    H   1.0     0.217279     0.106293     0.913617  Biso 1.000000     H
    H   1.0     0.217477     0.606501     0.914103  Biso 1.000000     H
    H   1.0     0.717370     0.106435     0.913679  Biso 1.000000     H
    H   1.0     0.717451     0.606617     0.913716  Biso 1.000000     H
    H   1.0     0.245087     0.441854     0.773875  Biso 1.000000     H
    H   1.0     0.244875     0.942077     0.774206  Biso 1.000000     H
    H   1.0     0.744753     0.442340     0.773970  Biso 1.000000     H
    H   1.0     0.744990     0.942538     0.773967  Biso 1.000000     H
    H   1.0     0.290879     0.497513     0.114681  Biso 1.000000     H
    H   1.0     0.290487     0.997935     0.114525  Biso 1.000000     H
    H   1.0     0.790717     0.497634     0.114385  Biso 1.000000     H
    H   1.0     0.790589     0.998067     0.114588  Biso 1.000000     H
    H   1.0     0.320093     0.401143     0.546913  Biso 1.000000     H
    H   1.0     0.319706     0.901526     0.547162  Biso 1.000000     H
    H   1.0     0.819630     0.401582     0.547029  Biso 1.000000     H
    H   1.0     0.819332     0.901849     0.546961  Biso 1.000000     H
    H   1.0     0.318616     0.020838     0.486806  Biso 1.000000     H
    H   1.0     0.318966     0.520473     0.486485  Biso 1.000000     H
    H   1.0     0.818368     0.021154     0.486493  Biso 1.000000     H
    H   1.0     0.818479     0.520907     0.486541  Biso 1.000000     H
    H   1.0     0.241416     0.061971     0.712912  Biso 1.000000     H
    H   1.0     0.241630     0.561725     0.712518  Biso 1.000000     H
    H   1.0     0.741694     0.062426     0.712579  Biso 1.000000     H
    H   1.0     0.741300     0.562224     0.712559  Biso 1.000000     H
    C   1.0     0.344484     0.277512     0.199494  Biso 1.000000     C
    C   1.0     0.344933     0.776920     0.199585  Biso 1.000000     C
    C   1.0     0.844425     0.277752     0.199397  Biso 1.000000     C
    C   1.0     0.844996     0.776824     0.199535  Biso 1.000000     C
    C   1.0     0.058529     0.254527     0.516119  Biso 1.000000     C
    C   1.0     0.058768     0.754089     0.516336  Biso 1.000000     C
    C   1.0     0.558471     0.254554     0.516318  Biso 1.000000     C
    C   1.0     0.558574     0.754497     0.516245  Biso 1.000000     C
    C   1.0     0.048046     0.278816     0.096340  Biso 1.000000     C
    C   1.0     0.048397     0.778695     0.096322  Biso 1.000000     C
    C   1.0     0.548051     0.278699     0.096268  Biso 1.000000     C
    C   1.0     0.548373     0.778570     0.096117  Biso 1.000000     C
    C   1.0     0.119281     0.271647     0.060219  Biso 1.000000     C
    C   1.0     0.119623     0.771429     0.060278  Biso 1.000000     C
    C   1.0     0.619269     0.271647     0.060121  Biso 1.000000     C
    C   1.0     0.619577     0.771372     0.059920  Biso 1.000000     C
    C   1.0     0.415029     0.281660     0.163921  Biso 1.000000     C
    C   1.0     0.415417     0.781385     0.164013  Biso 1.000000     C
    C   1.0     0.914999     0.281920     0.164048  Biso 1.000000     C
    C   1.0     0.915449     0.781433     0.164049  Biso 1.000000     C
    C   1.0     0.120161     0.258587     0.535444  Biso 1.000000     C
    C   1.0     0.120365     0.758048     0.535812  Biso 1.000000     C
    C   1.0     0.619874     0.258842     0.535919  Biso 1.000000     C
    C   1.0     0.620019     0.758694     0.535815  Biso 1.000000     C
    C   1.0     0.059672     0.231417     0.451486  Biso 1.000000     C
    C   1.0     0.059913     0.731014     0.451675  Biso 1.000000     C
    C   1.0     0.559845     0.231294     0.451716  Biso 1.000000     C
    C   1.0     0.559943     0.731285     0.451615  Biso 1.000000     C
    C   1.0     0.459948     0.260608     0.211299  Biso 1.000000     C
    C   1.0     0.460400     0.760419     0.211300  Biso 1.000000     C
    C   1.0     0.959912     0.260888     0.211426  Biso 1.000000     C
    C   1.0     0.960354     0.760650     0.211430  Biso 1.000000     C
    C   1.0     0.498114     0.273186     0.564290  Biso 1.000000     C
    C   1.0     0.498218     0.773119     0.564232  Biso 1.000000     C
    C   1.0     0.998253     0.273215     0.564207  Biso 1.000000     C
    C   1.0     0.998486     0.772825     0.564385  Biso 1.000000     C
    C   1.0     0.436732     0.303594     0.083030  Biso 1.000000     C
    C   1.0     0.437007     0.803402     0.083114  Biso 1.000000     C
    C   1.0     0.936730     0.303789     0.083136  Biso 1.000000     C
    C   1.0     0.937094     0.803343     0.083138  Biso 1.000000     C
    C   1.0     0.502940     0.302593     0.049410  Biso 1.000000     C
    C   1.0     0.503188     0.802470     0.049366  Biso 1.000000     C
    C   1.0     0.000000     0.302723     0.049491  Biso 1.000000     C
    C   1.0     0.000000     0.802442     0.049465  Biso 1.000000     C
    C   1.0     0.026136     0.258948     0.177531  Biso 1.000000     C
    C   1.0     0.026544     0.758914     0.177523  Biso 1.000000     C
    C   1.0     0.526161     0.258745     0.177439  Biso 1.000000     C
    C   1.0     0.526586     0.758633     0.177315  Biso 1.000000     C
    C   1.0     0.223324     0.154872     0.300659  Biso 1.000000     C
    C   1.0     0.223124     0.655117     0.300599  Biso 1.000000     C
    C   1.0     0.723150     0.155328     0.300598  Biso 1.000000     C
    C   1.0     0.722527     0.655634     0.300624  Biso 1.000000     C
    C   1.0     0.245496     0.441432     0.983896  Biso 1.000000     C
    C   1.0     0.245600     0.941277     0.983818  Biso 1.000000     C
    C   1.0     0.745388     0.441545     0.983561  Biso 1.000000     C
    C   1.0     0.745715     0.941422     0.983871  Biso 1.000000     C
    C   1.0     0.221207     0.451730     0.403857  Biso 1.000000     C
    C   1.0     0.221050     0.951506     0.403889  Biso 1.000000     C
    C   1.0     0.720785     0.452208     0.403903  Biso 1.000000     C
    C   1.0     0.721086     0.951861     0.403583  Biso 1.000000     C
    C   1.0     0.228274     0.380524     0.439979  Biso 1.000000     C
    C   1.0     0.228043     0.880268     0.439940  Biso 1.000000     C
    C   1.0     0.727739     0.380989     0.439987  Biso 1.000000     C
    C   1.0     0.728207     0.880622     0.439675  Biso 1.000000     C
    C   1.0     0.218664     0.084439     0.336206  Biso 1.000000     C
    C   1.0     0.218612     0.584662     0.336155  Biso 1.000000     C
    C   1.0     0.718536     0.084852     0.335979  Biso 1.000000     C
    C   1.0     0.718192     0.585157     0.336257  Biso 1.000000     C
    C   1.0     0.241271     0.379988     0.964413  Biso 1.000000     C
    C   1.0     0.241515     0.879656     0.964570  Biso 1.000000     C
    C   1.0     0.741088     0.380115     0.964098  Biso 1.000000     C
    C   1.0     0.741768     0.879763     0.964612  Biso 1.000000     C
    C   1.0     0.268408     0.440073     0.048799  Biso 1.000000     C
    C   1.0     0.268394     0.940185     0.048718  Biso 1.000000     C
    C   1.0     0.768337     0.440186     0.048437  Biso 1.000000     C
    C   1.0     0.768477     0.940328     0.048789  Biso 1.000000     C
    C   1.0     0.239326     0.039585     0.288824  Biso 1.000000     C
    C   1.0     0.239481     0.539792     0.288793  Biso 1.000000     C
    C   1.0     0.739368     0.040014     0.288572  Biso 1.000000     C
    C   1.0     0.739143     0.540291     0.288885  Biso 1.000000     C
    C   1.0     0.227228     0.001503     0.935388  Biso 1.000000     C
    C   1.0     0.227192     0.501767     0.935618  Biso 1.000000     C
    C   1.0     0.727308     0.001650     0.935464  Biso 1.000000     C
    C   1.0     0.727077     0.501882     0.935289  Biso 1.000000     C
    C   1.0     0.196764     0.062741     0.417111  Biso 1.000000     C
    C   1.0     0.196630     0.562979     0.417045  Biso 1.000000     C
    C   1.0     0.696511     0.063092     0.416861  Biso 1.000000     C
    C   1.0     0.696193     0.563452     0.417138  Biso 1.000000     C
    C   1.0     0.197485    -0.003434     0.450752  Biso 1.000000     C
    C   1.0     0.197460     0.496801     0.450696  Biso 1.000000     C
    C   1.0     0.697306    -0.003096     0.450452  Biso 1.000000     C
    C   1.0     0.697017     0.497267     0.450761  Biso 1.000000     C
    C   1.0     0.241130     0.473612     0.322675  Biso 1.000000     C
    C   1.0     0.240875     0.973414     0.322696  Biso 1.000000     C
    C   1.0     0.740793     0.474110     0.322737  Biso 1.000000     C
    C   1.0     0.741002     0.973822     0.322402  Biso 1.000000     C
    C   1.0     0.155011     0.223169     0.800430  Biso 1.000000     C
    C   1.0     0.155580     0.722237     0.800571  Biso 1.000000     C
    C   1.0     0.655062     0.223076     0.800388  Biso 1.000000     C
    C   1.0     0.655530     0.722463     0.800479  Biso 1.000000     C
    C   1.0     0.441442     0.245468     0.483724  Biso 1.000000     C
    C   1.0     0.441544     0.745424     0.483642  Biso 1.000000     C
    C   1.0     0.941244     0.245888     0.483644  Biso 1.000000     C
    C   1.0     0.941484     0.745452     0.483854  Biso 1.000000     C
    C   1.0     0.451626     0.221395     0.903865  Biso 1.000000     C
    C   1.0     0.451965     0.721275     0.903713  Biso 1.000000     C
    C   1.0     0.951614     0.221282     0.903650  Biso 1.000000     C
    C   1.0     0.951958     0.721174     0.903624  Biso 1.000000     C
    C   1.0     0.380421     0.228578     0.940062  Biso 1.000000     C
    C   1.0     0.380747     0.728338     0.939859  Biso 1.000000     C
    C   1.0     0.880388     0.228535     0.939696  Biso 1.000000     C
    C   1.0     0.880722     0.728349     0.939743  Biso 1.000000     C
    C   1.0     0.084559     0.218555     0.835917  Biso 1.000000     C
    C   1.0     0.085006     0.718065     0.835918  Biso 1.000000     C
    C   1.0     0.584580     0.218603     0.835961  Biso 1.000000     C
    C   1.0     0.584987     0.718308     0.836056  Biso 1.000000     C
    C   1.0     0.379996     0.241272     0.464156  Biso 1.000000     C
    C   1.0     0.380140     0.741147     0.464035  Biso 1.000000     C
    C   1.0     0.879645     0.241930     0.464174  Biso 1.000000     C
    C   1.0     0.879851     0.741391     0.464527  Biso 1.000000     C
    C   1.0     0.440071     0.268686     0.548351  Biso 1.000000     C
    C   1.0     0.440170     0.768675     0.548250  Biso 1.000000     C
    C   1.0     0.940100     0.268956     0.548310  Biso 1.000000     C
    C   1.0     0.940339     0.768568     0.548483  Biso 1.000000     C
    C   1.0     0.039652     0.239339     0.788539  Biso 1.000000     C
    C   1.0     0.040094     0.739097     0.788539  Biso 1.000000     C
    C   1.0     0.539594     0.239565     0.788678  Biso 1.000000     C
    C   1.0     0.540067     0.739359     0.788679  Biso 1.000000     C
    C   1.0     0.001524     0.227160     0.435587  Biso 1.000000     C
    C   1.0     0.001761     0.726757     0.435774  Biso 1.000000     C
    C   1.0     0.501797     0.226844     0.435739  Biso 1.000000     C
    C   1.0     0.501900     0.726791     0.435671  Biso 1.000000     C
    C   1.0     0.062917     0.196641     0.916828  Biso 1.000000     C
    C   1.0     0.063274     0.696197     0.916829  Biso 1.000000     C
    C   1.0     0.562993     0.196581     0.916860  Biso 1.000000     C
    C   1.0     0.563286     0.696373     0.916947  Biso 1.000000     C
    C   1.0    -0.003270     0.197537     0.950504  Biso 1.000000     C
    C   1.0    -0.002933     0.697265     0.950474  Biso 1.000000     C
    C   1.0     0.496814     0.197502     0.950612  Biso 1.000000     C
    C   1.0     0.497078     0.697378     0.950569  Biso 1.000000     C
    C   1.0     0.473409     0.241339     0.822667  Biso 1.000000     C
    C   1.0     0.473854     0.741226     0.822541  Biso 1.000000     C
    C   1.0     0.973463     0.241069     0.822449  Biso 1.000000     C
    C   1.0     0.973870     0.741039     0.822432  Biso 1.000000     C
    C   1.0     0.277486     0.344351     0.699340  Biso 1.000000     C
    C   1.0     0.276880     0.844638     0.699373  Biso 1.000000     C
    C   1.0     0.776893     0.344852     0.699376  Biso 1.000000     C
    C   1.0     0.776682     0.845111     0.699319  Biso 1.000000     C
    C   1.0     0.254261     0.058569     0.016092  Biso 1.000000     C
    C   1.0     0.254630     0.558433     0.016413  Biso 1.000000     C
    C   1.0     0.754404     0.058708     0.016142  Biso 1.000000     C
    C   1.0     0.754520     0.558546     0.016079  Biso 1.000000     C
    C   1.0     0.278915     0.048112     0.596397  Biso 1.000000     C
    C   1.0     0.279251     0.547773     0.596062  Biso 1.000000     C
    C   1.0     0.778953     0.048478     0.596088  Biso 1.000000     C
    C   1.0     0.778814     0.548238     0.596105  Biso 1.000000     C
    C   1.0     0.271793     0.119352     0.560302  Biso 1.000000     C
    C   1.0     0.272305     0.618993     0.559982  Biso 1.000000     C
    C   1.0     0.771959     0.119716     0.560036  Biso 1.000000     C
    C   1.0     0.771746     0.619444     0.559984  Biso 1.000000     C
    C   1.0     0.281825     0.414827     0.663706  Biso 1.000000     C
    C   1.0     0.281482     0.915118     0.663999  Biso 1.000000     C
    C   1.0     0.781407     0.415305     0.663809  Biso 1.000000     C
    C   1.0     0.781339     0.915545     0.663775  Biso 1.000000     C
    C   1.0     0.258182     0.120231     0.035359  Biso 1.000000     C
    C   1.0     0.258932     0.619864     0.035871  Biso 1.000000     C
    C   1.0     0.758488     0.120328     0.035395  Biso 1.000000     C
    C   1.0     0.758745     0.619992     0.035558  Biso 1.000000     C
    C   1.0     0.231514     0.059657     0.951165  Biso 1.000000     C
    C   1.0     0.231678     0.559792     0.951539  Biso 1.000000     C
    C   1.0     0.731605     0.059805     0.951243  Biso 1.000000     C
    C   1.0     0.731609     0.559905     0.951176  Biso 1.000000     C
    C   1.0     0.260882     0.459692     0.711078  Biso 1.000000     C
    C   1.0     0.260644     0.959955     0.711407  Biso 1.000000     C
    C   1.0     0.760537     0.460177     0.711169  Biso 1.000000     C
    C   1.0     0.760674     0.960400     0.711155  Biso 1.000000     C
    C   1.0     0.272940     0.498096     0.064685  Biso 1.000000     C
    C   1.0     0.272675     0.998344     0.064500  Biso 1.000000     C
    C   1.0     0.772822     0.498212     0.064358  Biso 1.000000     C
    C   1.0     0.772775     0.998478     0.064566  Biso 1.000000     C
    C   1.0     0.303825     0.436531     0.582824  Biso 1.000000     C
    C   1.0     0.303503     0.936881     0.583116  Biso 1.000000     C
    C   1.0     0.803392     0.436987     0.582919  Biso 1.000000     C
    C   1.0     0.803241     0.937242     0.582870  Biso 1.000000     C
    C   1.0     0.303008     0.502715     0.549202  Biso 1.000000     C
    C   1.0     0.302700     0.000000     0.549527  Biso 1.000000     C
    C   1.0     0.802562     0.503165     0.549267  Biso 1.000000     C
    C   1.0     0.802520     0.000000     0.549228  Biso 1.000000     C
    C   1.0     0.259001     0.026149     0.677577  Biso 1.000000     C
    C   1.0     0.259242     0.525872     0.677227  Biso 1.000000     C
    C   1.0     0.759124     0.026570     0.677282  Biso 1.000000     C
    C   1.0     0.758889     0.526357     0.677286  Biso 1.000000     C
    O   1.0     0.324950     0.266305     0.272933  Biso 1.000000     O
    O   1.0     0.325342     0.765529     0.273041  Biso 1.000000     O
    O   1.0     0.824488     0.266553     0.272811  Biso 1.000000     O
    O   1.0     0.825343     0.765331     0.272998  Biso 1.000000     O
    O   1.0     0.307226     0.284924     0.153428  Biso 1.000000     O
    O   1.0     0.307798     0.784210     0.153443  Biso 1.000000     O
    O   1.0     0.807499     0.285146     0.152975  Biso 1.000000     O
    O   1.0     0.807957     0.784075     0.153307  Biso 1.000000     O
    O   1.0     0.176007     0.242786     0.491425  Biso 1.000000     O
    O   1.0     0.176280     0.742145     0.491982  Biso 1.000000     O
    O   1.0     0.675958     0.242961     0.492309  Biso 1.000000     O
    O   1.0     0.676042     0.743345     0.491792  Biso 1.000000     O
    O   1.0     0.157515     0.250537     0.106797  Biso 1.000000     O
    O   1.0     0.157802     0.750606     0.106912  Biso 1.000000     O
    O   1.0     0.657617     0.250778     0.106603  Biso 1.000000     O
    O   1.0     0.657864     0.750412     0.106428  Biso 1.000000     O
    O   1.0     0.117169     0.276389     0.596747  Biso 1.000000     O
    O   1.0     0.117299     0.775867     0.597131  Biso 1.000000     O
    O   1.0     0.616516     0.276904     0.597147  Biso 1.000000     O
    O   1.0     0.616744     0.776173     0.597411  Biso 1.000000     O
    O   1.0     0.138099     0.285234    -0.013748  Biso 1.000000     O
    O   1.0     0.138460     0.784622    -0.013699  Biso 1.000000     O
    O   1.0     0.637945     0.285124    -0.013848  Biso 1.000000     O
    O   1.0     0.638313     0.784782    -0.014070  Biso 1.000000     O
    O   1.0     0.234910     0.174464     0.227183  Biso 1.000000     O
    O   1.0     0.234608     0.674707     0.227138  Biso 1.000000     O
    O   1.0     0.735228     0.175047     0.227120  Biso 1.000000     O
    O   1.0     0.734026     0.675075     0.227155  Biso 1.000000     O
    O   1.0     0.215952     0.191979     0.346806  Biso 1.000000     O
    O   1.0     0.215726     0.692260     0.346718  Biso 1.000000     O
    O   1.0     0.715272     0.192372     0.346978  Biso 1.000000     O
    O   1.0     0.714930     0.692939     0.346641  Biso 1.000000     O
    O   1.0     0.256402     0.324030     0.008716  Biso 1.000000     O
    O   1.0     0.256801     0.823844     0.008996  Biso 1.000000     O
    O   1.0     0.756793     0.324108     0.007996  Biso 1.000000     O
    O   1.0     0.757106     0.823988     0.009078  Biso 1.000000     O
    O   1.0     0.248672     0.342292     0.393442  Biso 1.000000     O
    O   1.0     0.248390     0.842128     0.393287  Biso 1.000000     O
    O   1.0     0.748263     0.342776     0.393405  Biso 1.000000     O
    O   1.0     0.749228     0.842454     0.393073  Biso 1.000000     O
    O   1.0     0.223972     0.383239     0.902678  Biso 1.000000     O
    O   1.0     0.224153     0.882638     0.902954  Biso 1.000000     O
    O   1.0     0.723194     0.383400     0.902751  Biso 1.000000     O
    O   1.0     0.724539     0.882701     0.902932  Biso 1.000000     O
    O   1.0     0.215326     0.361746     0.513956  Biso 1.000000     O
    O   1.0     0.215086     0.861369     0.513900  Biso 1.000000     O
    O   1.0     0.714571     0.362193     0.513949  Biso 1.000000     O
    O   1.0     0.714733     0.861748     0.513637  Biso 1.000000     O
    O   1.0     0.174663     0.234662     0.726967  Biso 1.000000     O
    O   1.0     0.175519     0.733436     0.727157  Biso 1.000000     O
    O   1.0     0.674653     0.234468     0.726931  Biso 1.000000     O
    O   1.0     0.675061     0.733675     0.727040  Biso 1.000000     O
    O   1.0     0.192048     0.215920     0.846658  Biso 1.000000     O
    O   1.0     0.192502     0.714849     0.846996  Biso 1.000000     O
    O   1.0     0.692195     0.215789     0.846531  Biso 1.000000     O
    O   1.0     0.692790     0.715055     0.846543  Biso 1.000000     O
    O   1.0     0.323974     0.256617     0.508183  Biso 1.000000     O
    O   1.0     0.324055     0.757042     0.507635  Biso 1.000000     O
    O   1.0     0.823734     0.257812     0.508023  Biso 1.000000     O
    O   1.0     0.824005     0.757201     0.508540  Biso 1.000000     O
    O   1.0     0.342139     0.249539     0.893550  Biso 1.000000     O
    O   1.0     0.342401     0.749211     0.893376  Biso 1.000000     O
    O   1.0     0.842208     0.249333     0.893064  Biso 1.000000     O
    O   1.0     0.842488     0.749465     0.893166  Biso 1.000000     O
    O   1.0     0.383268     0.223798     0.402558  Biso 1.000000     O
    O   1.0     0.383497     0.723079     0.402811  Biso 1.000000     O
    O   1.0     0.882707     0.224129     0.402843  Biso 1.000000     O
    O   1.0     0.882844     0.723581     0.403229  Biso 1.000000     O
    O   1.0     0.361680     0.215154     0.000000  Biso 1.000000     O
    O   1.0     0.362069     0.714867     0.000000  Biso 1.000000     O
    O   1.0     0.861553     0.215354     0.000000  Biso 1.000000     O
    O   1.0     0.861904     0.714764     0.000000  Biso 1.000000     O
    O   1.0     0.265982     0.324915     0.772810  Biso 1.000000     O
    O   1.0     0.264828     0.824904     0.772849  Biso 1.000000     O
    O   1.0     0.765406     0.325277     0.772838  Biso 1.000000     O
    O   1.0     0.765102     0.825512     0.772794  Biso 1.000000     O
    O   1.0     0.285083     0.307044     0.653325  Biso 1.000000     O
    O   1.0     0.284744     0.807604     0.652986  Biso 1.000000     O
    O   1.0     0.784293     0.307697     0.653271  Biso 1.000000     O
    O   1.0     0.784050     0.808010     0.653166  Biso 1.000000     O
    O   1.0     0.242880     0.176001     0.990868  Biso 1.000000     O
    O   1.0     0.243230     0.675869     0.991967  Biso 1.000000     O
    O   1.0     0.743192     0.176140     0.990976  Biso 1.000000     O
    O   1.0     0.743617     0.675947     0.991248  Biso 1.000000     O
    O   1.0     0.250772     0.157522     0.606901  Biso 1.000000     O
    O   1.0     0.251811     0.657202     0.606569  Biso 1.000000     O
    O   1.0     0.751602     0.157856     0.606689  Biso 1.000000     O
    O   1.0     0.751349     0.657675     0.606523  Biso 1.000000     O
    O   1.0     0.275356     0.117297     0.097073  Biso 1.000000     O
    O   1.0     0.276825     0.616582     0.097218  Biso 1.000000     O
    O   1.0     0.775855     0.117347     0.097008  Biso 1.000000     O
    O   1.0     0.776041     0.616745     0.097293  Biso 1.000000     O
    O   1.0     0.285270     0.138225     0.486340  Biso 1.000000     O
    O   1.0     0.285450     0.637793     0.486021  Biso 1.000000     O
    O   1.0     0.784922     0.138616     0.486077  Biso 1.000000     O
    O   1.0     0.784694     0.638223     0.486007  Biso 1.000000     O
    Y   1.0     0.272710     0.236261     0.398492  Biso 1.000000     Y
    Y   1.0     0.272861     0.736032     0.398496  Biso 1.000000     Y
    Y   1.0     0.772297     0.236737     0.398403  Biso 1.000000     Y
    Y   1.0     0.772511     0.736363     0.398350  Biso 1.000000     Y
    Y   1.0     0.263600     0.227462     0.101792  Biso 1.000000     Y
    Y   1.0     0.263967     0.727100     0.101647  Biso 1.000000     Y
    Y   1.0     0.763717     0.227654     0.101528  Biso 1.000000     Y
    Y   1.0     0.763900     0.727164     0.101548  Biso 1.000000     Y
    Y   1.0     0.227502     0.263614     0.601619  Biso 1.000000     Y
    Y   1.0     0.227719     0.763242     0.601565  Biso 1.000000     Y
    Y   1.0     0.727148     0.263952     0.601478  Biso 1.000000     Y
    Y   1.0     0.727303     0.763710     0.601481  Biso 1.000000     Y
    Y   1.0     0.236105     0.272825     0.898418  Biso 1.000000     Y
    Y   1.0     0.236300     0.772325     0.898446  Biso 1.000000     Y
    Y   1.0     0.736043     0.272882     0.898328  Biso 1.000000     Y
    Y   1.0     0.736397     0.772523     0.898187  Biso 1.000000     Y
