#======================================================================

# CRYSTAL DATA

#----------------------------------------------------------------------

data_VESTA_phase_1


_pd_phase_name                         MOF
_cell_length_a                         19.22600
_cell_length_b                         22.02900
_cell_length_c                         18.97300
_cell_angle_alpha                      101.66100
_cell_angle_beta                       87.80300
_cell_angle_gamma                      90.67800
_symmetry_space_group_name_H-M         "P 1"
_symmetry_Int_Tables_number            1

loop_
_symmetry_equiv_pos_as_xyz
   "x, y, z"

loop_
   _atom_site_label
   _atom_site_occupancy
   _atom_site_fract_x
   _atom_site_fract_y
   _atom_site_fract_z
   _atom_site_adp_type
   _atom_site_B_iso_or_equiv
   _atom_site_type_symbol
    H   1.0     0.109574     0.195879     0.762386  Biso 1.000000     H
    H   1.0     0.121381     0.693218     0.772209  Biso 1.000000     H
    H   1.0     0.622748     0.192263     0.770729  Biso 1.000000     H
    H   1.0     0.609034     0.698793     0.759903  Biso 1.000000     H
    H   1.0     0.112825     0.134696     0.636011  Biso 1.000000     H
    H   1.0     0.111745     0.619840     0.653688  Biso 1.000000     H
    H   1.0     0.612245     0.119194     0.652174  Biso 1.000000     H
    H   1.0     0.612141     0.637669     0.633531  Biso 1.000000     H
    H   1.0     0.389797     0.138751     0.670441  Biso 1.000000     H
    H   1.0     0.388260     0.632084     0.638394  Biso 1.000000     H
    H   1.0     0.888956     0.133368     0.638444  Biso 1.000000     H
    H   1.0     0.888960     0.635660     0.672517  Biso 1.000000     H
    H   1.0     0.400341     0.210150     0.790684  Biso 1.000000     H
    H   1.0     0.385588     0.692967     0.764582  Biso 1.000000     H
    H   1.0     0.886133     0.194238     0.764698  Biso 1.000000     H
    H   1.0     0.898639     0.707158     0.792788  Biso 1.000000     H
    H   1.0     0.117051     0.047656    -0.004603  Biso 1.000000     H
    H   1.0     0.105231     0.566188    -0.008787  Biso 1.000000     H
    H   1.0     0.604486     0.067148    -0.010057  Biso 1.000000     H
    H   1.0     0.618174     0.549561    -0.006255  Biso 1.000000     H
    H   1.0     0.382448     0.049696     0.000000  Biso 1.000000     H
    H   1.0     0.395534     0.564973     0.995716  Biso 1.000000     H
    H   1.0     0.894518     0.063773     0.996612  Biso 1.000000     H
    H   1.0     0.883350     0.548035     0.000000  Biso 1.000000     H
    H   1.0     0.351932     0.044810     0.709363  Biso 1.000000     H
    H   1.0     0.364209     0.555167     0.738338  Biso 1.000000     H
    H   1.0     0.863998     0.056099     0.737391  Biso 1.000000     H
    H   1.0     0.850286     0.541974     0.711686  Biso 1.000000     H
    H   1.0     0.361958     0.117176     0.828980  Biso 1.000000     H
    H   1.0     0.361517     0.616064     0.864569  Biso 1.000000     H
    H   1.0     0.861627     0.116396     0.863880  Biso 1.000000     H
    H   1.0     0.860147     0.613390     0.831966  Biso 1.000000     H
    H   1.0     0.139090     0.131283     0.849620  Biso 1.000000     H
    H   1.0     0.137636     0.615316     0.866989  Biso 1.000000     H
    H   1.0     0.637722     0.115210     0.867216  Biso 1.000000     H
    H   1.0     0.637805     0.634258     0.847841  Biso 1.000000     H
    H   1.0     0.129170     0.057328     0.731606  Biso 1.000000     H
    H   1.0     0.140768     0.554294     0.740555  Biso 1.000000     H
    H   1.0     0.640531     0.054548     0.740644  Biso 1.000000     H
    H   1.0     0.627930     0.560875     0.729439  Biso 1.000000     H
    H   1.0     0.366756     0.200905     0.484817  Biso 1.000000     H
    H   1.0     0.355777     0.685996     0.508215  Biso 1.000000     H
    H   1.0     0.856208     0.187581     0.506298  Biso 1.000000     H
    H   1.0     0.867078     0.702621     0.486205  Biso 1.000000     H
    H   1.0     0.145065     0.183365     0.512215  Biso 1.000000     H
    H   1.0     0.133348     0.701016     0.505666  Biso 1.000000     H
    H   1.0     0.633566     0.201816     0.506253  Biso 1.000000     H
    H   1.0     0.645197     0.684143     0.510464  Biso 1.000000     H
    H   1.0     0.391273     0.303824     0.239898  Biso 1.000000     H
    H   1.0     0.378570     0.806886     0.230682  Biso 1.000000     H
    H   1.0     0.878047     0.307924     0.230533  Biso 1.000000     H
    H   1.0     0.891142     0.802343     0.240822  Biso 1.000000     H
    H   1.0     0.387999     0.363990     0.366683  Biso 1.000000     H
    H   1.0     0.388633     0.879898     0.349368  Biso 1.000000     H
    H   1.0     0.887824     0.380985     0.349225  Biso 1.000000     H
    H   1.0     0.887803     0.862851     0.367505  Biso 1.000000     H
    H   1.0     0.110415     0.362825     0.331658  Biso 1.000000     H
    H   1.0     0.111689     0.866167     0.364259  Biso 1.000000     H
    H   1.0     0.611889     0.367278     0.363319  Biso 1.000000     H
    H   1.0     0.611476     0.865701     0.328286  Biso 1.000000     H
    H   1.0     0.100617     0.291544     0.211232  Biso 1.000000     H
    H   1.0     0.114602     0.805967     0.237707  Biso 1.000000     H
    H   1.0     0.614723     0.307413     0.236631  Biso 1.000000     H
    H   1.0     0.601309     0.794469     0.207949  Biso 1.000000     H
    H   1.0     0.383981     0.453358     0.000000  Biso 1.000000     H
    H   1.0     0.394870     0.935522     0.000000  Biso 1.000000     H
    H   1.0     0.896304     0.433913     0.000000  Biso 1.000000     H
    H   1.0     0.882371     0.952392     0.000000  Biso 1.000000     H
    H   1.0     0.118220     0.452119    -0.012765  Biso 1.000000     H
    H   1.0     0.104909     0.936279     0.006685  Biso 1.000000     H
    H   1.0     0.606616     0.437928     0.004276  Biso 1.000000     H
    H   1.0     0.616898     0.952977    -0.014233  Biso 1.000000     H
    H   1.0     0.148738     0.455949     0.292544  Biso 1.000000     H
    H   1.0     0.135865     0.943046     0.264331  Biso 1.000000     H
    H   1.0     0.636200     0.444727     0.263749  Biso 1.000000     H
    H   1.0     0.649953     0.959754     0.290670  Biso 1.000000     H
    H   1.0     0.139046     0.384343     0.172368  Biso 1.000000     H
    H   1.0     0.138518     0.883762     0.137448  Biso 1.000000     H
    H   1.0     0.639137     0.384678     0.137209  Biso 1.000000     H
    H   1.0     0.639988     0.888329     0.170400  Biso 1.000000     H
    H   1.0     0.361868     0.368980     0.153194  Biso 1.000000     H
    H   1.0     0.362424     0.885165     0.134622  Biso 1.000000     H
    H   1.0     0.863003     0.385351     0.135246  Biso 1.000000     H
    H   1.0     0.862279     0.867177     0.154460  Biso 1.000000     H
    H   1.0     0.371465     0.442056     0.271877  Biso 1.000000     H
    H   1.0     0.359313     0.944778     0.261642  Biso 1.000000     H
    H   1.0     0.859627     0.445804     0.261844  Biso 1.000000     H
    H   1.0     0.872281     0.940524     0.272874  Biso 1.000000     H
    H   1.0     0.132309     0.297688     0.517550  Biso 1.000000     H
    H   1.0     0.145327     0.812768     0.495943  Biso 1.000000     H
    H   1.0     0.644620     0.313589     0.496335  Biso 1.000000     H
    H   1.0     0.632095     0.798377     0.515498  Biso 1.000000     H
    H   1.0     0.354007     0.315210     0.490143  Biso 1.000000     H
    H   1.0     0.367766     0.797745     0.498360  Biso 1.000000     H
    H   1.0     0.867275     0.299385     0.496524  Biso 1.000000     H
    H   1.0     0.853977     0.816824     0.491096  Biso 1.000000     H
    C   1.0     0.512035     0.203171     0.788945  Biso 1.000000     C
    C   1.0     0.497122     0.698044     0.770764  Biso 1.000000     C
    C   1.0     0.997602     0.197166     0.772044  Biso 1.000000     C
    C   1.0     0.000000     0.702263     0.790703  Biso 1.000000     C
    C   1.0     0.061549     0.182197     0.734802  Biso 1.000000     C
    C   1.0     0.070780     0.680486     0.749771  Biso 1.000000     C
    C   1.0     0.572039     0.180443     0.748123  Biso 1.000000     C
    C   1.0     0.560955     0.684206     0.732836  Biso 1.000000     C
    C   1.0     0.063343     0.148209     0.664381  Biso 1.000000     C
    C   1.0     0.065370     0.639690     0.683969  Biso 1.000000     C
    C   1.0     0.566135     0.139813     0.682290  Biso 1.000000     C
    C   1.0     0.562666     0.650224     0.662401  Biso 1.000000     C
    C   1.0     0.500046     0.122269     0.656184  Biso 1.000000     C
    C   1.0     0.500439     0.629619     0.628745  Biso 1.000000     C
    C   1.0     0.000000     0.128771     0.630081  Biso 1.000000     C
    C   1.0     0.999505     0.621091     0.657955  Biso 1.000000     C
    C   1.0     0.440507     0.150831     0.692956  Biso 1.000000     C
    C   1.0     0.436489     0.646953     0.665099  Biso 1.000000     C
    C   1.0     0.937139     0.147312     0.665698  Biso 1.000000     C
    C   1.0     0.939541     0.648605     0.694903  Biso 1.000000     C
    C   1.0     0.446371     0.190679     0.759391  Biso 1.000000     C
    C   1.0     0.434916     0.680938     0.735363  Biso 1.000000     C
    C   1.0     0.935493     0.181286     0.735962  Biso 1.000000     C
    C   1.0     0.944923     0.688532     0.761343  Biso 1.000000     C
    C   1.0     0.518320     0.233024     0.866327  Biso 1.000000     C
    C   1.0     0.494328     0.726027     0.849748  Biso 1.000000     C
    C   1.0     0.994283     0.224998     0.851044  Biso 1.000000     C
    C   1.0     0.000000     0.732520     0.868025  Biso 1.000000     C
    C   1.0     0.492537     0.068794     0.594381  Biso 1.000000     C
    C   1.0     0.501745     0.586612     0.556585  Biso 1.000000     C
    C   1.0     0.000000     0.085683     0.558022  Biso 1.000000     C
    C   1.0     0.992759     0.567657     0.595958  Biso 1.000000     C
    C   1.0     0.492709     0.064886     0.002139  Biso 1.000000     C
    C   1.0     0.507585     0.563560    -0.005910  Biso 1.000000     C
    C   1.0     0.000000     0.062045    -0.004680  Biso 1.000000     C
    C   1.0     0.993488     0.563593     0.003821  Biso 1.000000     C
    C   1.0     0.065980     0.026227    -0.001783  Biso 1.000000     C
    C   1.0     0.059922     0.536816    -0.004390  Biso 1.000000     C
    C   1.0     0.559026     0.037907    -0.005869  Biso 1.000000     C
    C   1.0     0.567226     0.527908    -0.003441  Biso 1.000000     C
    C   1.0     0.433466     0.027942     0.000000  Biso 1.000000     C
    C   1.0     0.441322     0.536740     0.997539  Biso 1.000000     C
    C   1.0     0.940162     0.035457     0.998797  Biso 1.000000     C
    C   1.0     0.934463     0.526447     0.000000  Biso 1.000000     C
    C   1.0     0.484632     0.132586     0.004303  Biso 1.000000     C
    C   1.0     0.515228     0.629963    -0.011483  Biso 1.000000     C
    C   1.0     0.000000     0.128358    -0.010639  Biso 1.000000     C
    C   1.0     0.984963     0.631266     0.005928  Biso 1.000000     C
    C   1.0     0.240007     0.048974     0.712252  Biso 1.000000     C
    C   1.0     0.252741     0.552599     0.730945  Biso 1.000000     C
    C   1.0     0.752485     0.053247     0.730487  Biso 1.000000     C
    C   1.0     0.738685     0.549430     0.712293  Biso 1.000000     C
    C   1.0     0.305721     0.063296     0.741046  Biso 1.000000     C
    C   1.0     0.314873     0.568293     0.767046  Biso 1.000000     C
    C   1.0     0.814728     0.068939     0.766368  Biso 1.000000     C
    C   1.0     0.804103     0.561684     0.742491  Biso 1.000000     C
    C   1.0     0.311287     0.103710     0.807130  Biso 1.000000     C
    C   1.0     0.313295     0.602285     0.837308  Biso 1.000000     C
    C   1.0     0.813331     0.102602     0.836780  Biso 1.000000     C
    C   1.0     0.809598     0.601557     0.808950  Biso 1.000000     C
    C   1.0     0.251360     0.131039     0.844352  Biso 1.000000     C
    C   1.0     0.249387     0.620987     0.872939  Biso 1.000000     C
    C   1.0     0.749506     0.121067     0.872757  Biso 1.000000     C
    C   1.0     0.749958     0.630524     0.845052  Biso 1.000000     C
    C   1.0     0.185440     0.111676     0.819091  Biso 1.000000     C
    C   1.0     0.187101     0.601747     0.838603  Biso 1.000000     C
    C   1.0     0.687130     0.101815     0.838619  Biso 1.000000     C
    C   1.0     0.684036     0.613318     0.818272  Biso 1.000000     C
    C   1.0     0.179863     0.070513     0.753567  Biso 1.000000     C
    C   1.0     0.188823     0.567798     0.768163  Biso 1.000000     C
    C   1.0     0.688671     0.068096     0.768068  Biso 1.000000     C
    C   1.0     0.678481     0.572532     0.752488  Biso 1.000000     C
    C   1.0     0.233823     0.018431     0.635049  Biso 1.000000     C
    C   1.0     0.255986     0.524662     0.651960  Biso 1.000000     C
    C   1.0     0.755455     0.025710     0.651393  Biso 1.000000     C
    C   1.0     0.733062     0.519433     0.634851  Biso 1.000000     C
    C   1.0     0.258116     0.185080     0.905644  Biso 1.000000     C
    C   1.0     0.248044     0.664009     0.945065  Biso 1.000000     C
    C   1.0     0.748498     0.163933     0.944988  Biso 1.000000     C
    C   1.0     0.757433     0.684031     0.906821  Biso 1.000000     C
    C   1.0     0.256689     0.185681     0.498164  Biso 1.000000     C
    C   1.0     0.243800     0.687177     0.507530  Biso 1.000000     C
    C   1.0     0.744195     0.188325     0.506783  Biso 1.000000     C
    C   1.0     0.756945     0.686940     0.498058  Biso 1.000000     C
    C   1.0     0.315740     0.222682     0.491889  Biso 1.000000     C
    C   1.0     0.310121     0.714167     0.505565  Biso 1.000000     C
    C   1.0     0.810304     0.215590     0.504165  Biso 1.000000     C
    C   1.0     0.815944     0.724172     0.492510  Biso 1.000000     C
    C   1.0     0.190365     0.212662     0.507477  Biso 1.000000     C
    C   1.0     0.184351     0.722784     0.504023  Biso 1.000000     C
    C   1.0     0.684423     0.223741     0.504002  Biso 1.000000     C
    C   1.0     0.690468     0.713626     0.506366  Biso 1.000000     C
    C   1.0     0.265081     0.117957     0.495610  Biso 1.000000     C
    C   1.0     0.235745     0.620707     0.512774  Biso 1.000000     C
    C   1.0     0.736850     0.121748     0.511909  Biso 1.000000     C
    C   1.0     0.765479     0.619276     0.495783  Biso 1.000000     C
    C   1.0    -0.011116     0.297810     0.212606  Biso 1.000000     C
    C   1.0     0.003110     0.802110     0.230783  Biso 1.000000     C
    C   1.0     0.503219     0.303572     0.229699  Biso 1.000000     C
    C   1.0     0.489380     0.798692     0.211059  Biso 1.000000     C
    C   1.0     0.439311     0.317717     0.267361  Biso 1.000000     C
    C   1.0     0.429288     0.819882     0.252686  Biso 1.000000     C
    C   1.0     0.928633     0.320069     0.253290  Biso 1.000000     C
    C   1.0     0.939152     0.816309     0.268311  Biso 1.000000     C
    C   1.0     0.437510     0.351150     0.338033  Biso 1.000000     C
    C   1.0     0.434947     0.860509     0.318587  Biso 1.000000     C
    C   1.0     0.934123     0.360679     0.319197  Biso 1.000000     C
    C   1.0     0.937313     0.849917     0.338895  Biso 1.000000     C
    C   1.0     0.000030     0.378662     0.345537  Biso 1.000000     C
    C   1.0    -0.000483     0.869702     0.373078  Biso 1.000000     C
    C   1.0     0.499714     0.370874     0.372267  Biso 1.000000     C
    C   1.0     0.500898     0.879587     0.343968  Biso 1.000000     C
    C   1.0     0.059836     0.350464     0.308961  Biso 1.000000     C
    C   1.0     0.063522     0.851896     0.337140  Biso 1.000000     C
    C   1.0     0.563687     0.353152     0.336183  Biso 1.000000     C
    C   1.0     0.560773     0.852499     0.306364  Biso 1.000000     C
    C   1.0     0.054390     0.310665     0.242429  Biso 1.000000     C
    C   1.0     0.065229     0.818317     0.266693  Biso 1.000000     C
    C   1.0     0.565346     0.319723     0.265633  Biso 1.000000     C
    C   1.0     0.555132     0.812707     0.239872  Biso 1.000000     C
    C   1.0    -0.016901     0.268141     0.135086  Biso 1.000000     C
    C   1.0     0.006228     0.774774     0.151693  Biso 1.000000     C
    C   1.0     0.506111     0.276287     0.150524  Biso 1.000000     C
    C   1.0     0.483011     0.768888     0.133657  Biso 1.000000     C
    C   1.0     0.006968     0.432260     0.407319  Biso 1.000000     C
    C   1.0    -0.002022     0.912461     0.445366  Biso 1.000000     C
    C   1.0     0.498127     0.413381     0.444769  Biso 1.000000     C
    C   1.0     0.507891     0.933078     0.405904  Biso 1.000000     C
    C   1.0     0.008065     0.436524     0.999118  Biso 1.000000     C
    C   1.0    -0.007133     0.938009     0.000000  Biso 1.000000     C
    C   1.0     0.494561     0.439352     0.000000  Biso 1.000000     C
    C   1.0     0.506655     0.937801     0.997512  Biso 1.000000     C
    C   1.0     0.434926     0.475011     0.000000  Biso 1.000000     C
    C   1.0     0.440326     0.964763     0.000000  Biso 1.000000     C
    C   1.0     0.941626     0.463295     0.000000  Biso 1.000000     C
    C   1.0     0.933441     0.973824     0.000000  Biso 1.000000     C
    C   1.0     0.067096     0.473683    -0.006634  Biso 1.000000     C
    C   1.0     0.059258     0.964596     0.004541  Biso 1.000000     C
    C   1.0     0.560832     0.466165     0.002433  Biso 1.000000     C
    C   1.0     0.565885     0.974736    -0.008177  Biso 1.000000     C
    C   1.0     0.016498     0.368853     0.997015  Biso 1.000000     C
    C   1.0    -0.015179     0.871688     0.000000  Biso 1.000000     C
    C   1.0     0.486734     0.372959     0.000000  Biso 1.000000     C
    C   1.0     0.514924     0.870151     0.995561  Biso 1.000000     C
    C   1.0     0.260592     0.450950     0.290489  Biso 1.000000     C
    C   1.0     0.247344     0.945945     0.271588  Biso 1.000000     C
    C   1.0     0.747642     0.447421     0.271433  Biso 1.000000     C
    C   1.0     0.761539     0.952105     0.290049  Biso 1.000000     C
    C   1.0     0.195018     0.437318     0.261094  Biso 1.000000     C
    C   1.0     0.185211     0.930431     0.235411  Biso 1.000000     C
    C   1.0     0.685614     0.431825     0.235095  Biso 1.000000     C
    C   1.0     0.696106     0.939981     0.259852  Biso 1.000000     C
    C   1.0     0.189636     0.397362     0.194683  Biso 1.000000     C
    C   1.0     0.186776     0.897308     0.164740  Biso 1.000000     C
    C   1.0     0.687330     0.398268     0.164603  Biso 1.000000     C
    C   1.0     0.690553     0.900085     0.193410  Biso 1.000000     C
    C   1.0     0.249605     0.369885     0.157682  Biso 1.000000     C
    C   1.0     0.250675     0.879206     0.128710  Biso 1.000000     C
    C   1.0     0.751264     0.379744     0.128864  Biso 1.000000     C
    C   1.0     0.750135     0.870977     0.157351  Biso 1.000000     C
    C   1.0     0.315465     0.388705     0.183524  Biso 1.000000     C
    C   1.0     0.312939     0.898244     0.163214  Biso 1.000000     C
    C   1.0     0.813450     0.398771     0.163527  Biso 1.000000     C
    C   1.0     0.816086     0.888152     0.184070  Biso 1.000000     C
    C   1.0     0.320862     0.429358     0.249434  Biso 1.000000     C
    C   1.0     0.311229     0.931401     0.234039  Biso 1.000000     C
    C   1.0     0.811591     0.432393     0.234161  Biso 1.000000     C
    C   1.0     0.821711     0.928938     0.249834  Biso 1.000000     C
    C   1.0     0.266454     0.480744     0.367960  Biso 1.000000     C
    C   1.0     0.244112     0.973120     0.350813  Biso 1.000000     C
    C   1.0     0.744286     0.475183     0.350552  Biso 1.000000     C
    C   1.0     0.767251     0.981943     0.367513  Biso 1.000000     C
    C   1.0     0.242819     0.316180     0.096006  Biso 1.000000     C
    C   1.0     0.251998     0.837072     0.055939  Biso 1.000000     C
    C   1.0     0.752491     0.337288     0.056256  Biso 1.000000     C
    C   1.0     0.742621     0.817303     0.095770  Biso 1.000000     C
    C   1.0     0.242376     0.312912     0.504224  Biso 1.000000     C
    C   1.0     0.257307     0.811601     0.496609  Biso 1.000000     C
    C   1.0     0.756661     0.312841     0.495807  Biso 1.000000     C
    C   1.0     0.742226     0.814066     0.503684  Biso 1.000000     C
    C   1.0     0.183324     0.275908     0.510464  Biso 1.000000     C
    C   1.0     0.190987     0.784606     0.498595  Biso 1.000000     C
    C   1.0     0.690540     0.285598     0.498486  Biso 1.000000     C
    C   1.0     0.683225     0.776821     0.509160  Biso 1.000000     C
    C   1.0     0.308697     0.285921     0.494870  Biso 1.000000     C
    C   1.0     0.316759     0.775994     0.500078  Biso 1.000000     C
    C   1.0     0.816424     0.277444     0.498706  Biso 1.000000     C
    C   1.0     0.808699     0.787361     0.495251  Biso 1.000000     C
    C   1.0     0.234056     0.380664     0.506928  Biso 1.000000     C
    C   1.0     0.265144     0.878063     0.491265  Biso 1.000000     C
    C   1.0     0.764212     0.379321     0.490399  Biso 1.000000     C
    C   1.0     0.733696     0.881780     0.506327  Biso 1.000000     C
    O   1.0     0.463254     0.243084     0.906289  Biso 1.000000     O
    O   1.0     0.433738     0.738409     0.879505  Biso 1.000000     O
    O   1.0     0.933415     0.237370     0.880067  Biso 1.000000     O
    O   1.0     0.961034     0.741825     0.907687  Biso 1.000000     O
    O   1.0     0.050211     0.232264     0.885510  Biso 1.000000     O
    O   1.0     0.077552     0.743864     0.891802  Biso 1.000000     O
    O   1.0     0.579747     0.243225     0.889864  Biso 1.000000     O
    O   1.0     0.550701     0.733442     0.883427  Biso 1.000000     O
    O   1.0     0.431687     0.052966     0.574103  Biso 1.000000     O
    O   1.0     0.443620     0.567441     0.530053  Biso 1.000000     O
    O   1.0     0.944528     0.066885     0.530816  Biso 1.000000     O
    O   1.0     0.932280     0.552010     0.574350  Biso 1.000000     O
    O   1.0     0.061220     0.069220     0.527359  Biso 1.000000     O
    O   1.0     0.048009     0.538302     0.570632  Biso 1.000000     O
    O   1.0     0.547535     0.039573     0.567884  Biso 1.000000     O
    O   1.0     0.560336     0.570628     0.525203  Biso 1.000000     O
    O   1.0     0.422908     0.154430     0.012398  Biso 1.000000     O
    O   1.0     0.460930     0.661487    -0.015538  Biso 1.000000     O
    O   1.0     0.960666     0.160204    -0.014832  Biso 1.000000     O
    O   1.0     0.923229     0.652996     0.015180  Biso 1.000000     O
    O   1.0     0.076750     0.149847    -0.011491  Biso 1.000000     O
    O   1.0     0.038503     0.664085    -0.002556  Biso 1.000000     O
    O   1.0     0.538507     0.165347    -0.002938  Biso 1.000000     O
    O   1.0     0.577116     0.651842    -0.012190  Biso 1.000000     O
    O   1.0     0.172488     0.007812     0.611402  Biso 1.000000     O
    O   1.0     0.199985     0.517480     0.617600  Biso 1.000000     O
    O   1.0     0.699318     0.018733     0.617291  Biso 1.000000     O
    O   1.0     0.671893     0.509047     0.610698  Biso 1.000000     O
    O   1.0     0.289038     0.008187     0.595347  Biso 1.000000     O
    O   1.0     0.316781     0.512101     0.622867  Biso 1.000000     O
    O   1.0     0.816148     0.013260     0.621971  Biso 1.000000     O
    O   1.0     0.788570     0.509408     0.595577  Biso 1.000000     O
    O   1.0     0.202638     0.213433     0.932189  Biso 1.000000     O
    O   1.0     0.189313     0.680351     0.975801  Biso 1.000000     O
    O   1.0     0.689972     0.181181     0.975644  Biso 1.000000     O
    O   1.0     0.702822     0.714562     0.931864  Biso 1.000000     O
    O   1.0     0.318773     0.202293     0.925404  Biso 1.000000     O
    O   1.0     0.306065     0.682814     0.972210  Biso 1.000000     O
    O   1.0     0.806702     0.181773     0.972327  Biso 1.000000     O
    O   1.0     0.818117     0.698659     0.928502  Biso 1.000000     O
    O   1.0     0.211378     0.085025     0.502967  Biso 1.000000     O
    O   1.0     0.173757     0.598995     0.512720  Biso 1.000000     O
    O   1.0     0.675010     0.099726     0.512413  Biso 1.000000     O
    O   1.0     0.711796     0.586325     0.503168  Biso 1.000000     O
    O   1.0     0.326863     0.096315     0.487243  Biso 1.000000     O
    O   1.0     0.289777     0.589018     0.517423  Biso 1.000000     O
    O   1.0     0.791278     0.090363     0.515807  Biso 1.000000     O
    O   1.0     0.827290     0.597668     0.487597  Biso 1.000000     O
    O   1.0     0.038464     0.258086     0.095625  Biso 1.000000     O
    O   1.0     0.066924     0.762503     0.122199  Biso 1.000000     O
    O   1.0     0.566705     0.264080     0.120724  Biso 1.000000     O
    O   1.0     0.538020     0.759718     0.093472  Biso 1.000000     O
    O   1.0     0.449794     0.269257     0.116735  Biso 1.000000     O
    O   1.0     0.421631     0.757808     0.110293  Biso 1.000000     O
    O   1.0     0.921858     0.258105     0.110986  Biso 1.000000     O
    O   1.0     0.950072     0.767804     0.117615  Biso 1.000000     O
    O   1.0     0.067495     0.447914     0.428772  Biso 1.000000     O
    O   1.0     0.055998     0.931009     0.472704  Biso 1.000000     O
    O   1.0     0.556022     0.432245     0.472142  Biso 1.000000     O
    O   1.0     0.568623     0.949241     0.426303  Biso 1.000000     O
    O   1.0     0.439300     0.429280     0.475611  Biso 1.000000     O
    O   1.0     0.452666     0.961989     0.432348  Biso 1.000000     O
    O   1.0     0.951806     0.461804     0.432552  Biso 1.000000     O
    O   1.0     0.939180     0.928837     0.475945  Biso 1.000000     O
    O   1.0     0.078350     0.347285     0.989716  Biso 1.000000     O
    O   1.0     0.038912     0.839947     0.000000  Biso 1.000000     O
    O   1.0     0.540900     0.341223     0.000000  Biso 1.000000     O
    O   1.0     0.576711     0.848469     0.987318  Biso 1.000000     O
    O   1.0     0.424731     0.351340     0.000000  Biso 1.000000     O
    O   1.0     0.461216     0.837308     0.000000  Biso 1.000000     O
    O   1.0     0.962736     0.335770     0.000000  Biso 1.000000     O
    O   1.0     0.922808     0.850076     0.000000  Biso 1.000000     O
    O   1.0     0.327698     0.491063     0.391930  Biso 1.000000     O
    O   1.0     0.300179     0.980938     0.385052  Biso 1.000000     O
    O   1.0     0.800250     0.482408     0.384973  Biso 1.000000     O
    O   1.0     0.828448     0.992155     0.391629  Biso 1.000000     O
    O   1.0     0.211104     0.490642     0.407498  Biso 1.000000     O
    O   1.0     0.183237     0.984486     0.380194  Biso 1.000000     O
    O   1.0     0.683475     0.487651     0.379706  Biso 1.000000     O
    O   1.0     0.711833     0.991961     0.406919  Biso 1.000000     O
    O   1.0     0.298248     0.288177     0.068705  Biso 1.000000     O
    O   1.0     0.310683     0.821072     0.024861  Biso 1.000000     O
    O   1.0     0.811054     0.320250     0.025504  Biso 1.000000     O
    O   1.0     0.797267     0.786744     0.070884  Biso 1.000000     O
    O   1.0     0.182079     0.298855     0.076680  Biso 1.000000     O
    O   1.0     0.193972     0.818605     0.028535  Biso 1.000000     O
    O   1.0     0.694370     0.319624     0.028590  Biso 1.000000     O
    O   1.0     0.681899     0.802599     0.074205  Biso 1.000000     O
    O   1.0     0.287817     0.413548     0.499616  Biso 1.000000     O
    O   1.0     0.327052     0.899889     0.490473  Biso 1.000000     O
    O   1.0     0.826064     0.401328     0.490401  Biso 1.000000     O
    O   1.0     0.787328     0.914724     0.498661  Biso 1.000000     O
    O   1.0     0.172327     0.402433     0.515423  Biso 1.000000     O
    O   1.0     0.210854     0.909658     0.487383  Biso 1.000000     O
    O   1.0     0.709984     0.410745     0.485659  Biso 1.000000     O
    O   1.0     0.671975     0.903547     0.515164  Biso 1.000000     O
    Y   1.0     0.393248     0.251795     0.007533  Biso 1.000000     Y
    Y   1.0     0.394992     0.749234    -0.005722  Biso 1.000000     Y
    Y   1.0     0.895278     0.248457    -0.004963  Biso 1.000000     Y
    Y   1.0     0.892357     0.750045     0.009709  Biso 1.000000     Y
    Y   1.0     0.142254     0.499563     0.509462  Biso 1.000000     Y
    Y   1.0     0.145087     0.997176     0.495538  Biso 1.000000     Y
    Y   1.0     0.644784     0.498855     0.494724  Biso 1.000000     Y
    Y   1.0     0.642467     0.000000     0.508392  Biso 1.000000     Y
    Y   1.0     0.107801     0.249655     0.993961  Biso 1.000000     Y
    Y   1.0     0.105049     0.752125     0.000000  Biso 1.000000     Y
    Y   1.0     0.605746     0.252926     0.000000  Biso 1.000000     Y
    Y   1.0     0.607724     0.751575     0.992407  Biso 1.000000     Y
    Y   1.0     0.357831    -0.000480     0.493334  Biso 1.000000     Y
    Y   1.0     0.354975     0.500836     0.507690  Biso 1.000000     Y
    Y   1.0     0.855352     0.001425     0.507259  Biso 1.000000     Y
    Y   1.0     0.857538     0.500607     0.493579  Biso 1.000000     Y
