#======================================================================

# CRYSTAL DATA

#----------------------------------------------------------------------

data_VESTA_phase_1


_pd_phase_name                         MOF
_cell_length_a                         19.05600
_cell_length_b                         15.00400
_cell_length_c                         15.86500
_cell_angle_alpha                      90.11900
_cell_angle_beta                       89.79900
_cell_angle_gamma                      109.21500
_symmetry_space_group_name_H-M         "P 1"
_symmetry_Int_Tables_number            1

loop_
_symmetry_equiv_pos_as_xyz
   "x, y, z"

loop_
   _atom_site_label
   _atom_site_occupancy
   _atom_site_fract_x
   _atom_site_fract_y
   _atom_site_fract_z
   _atom_site_adp_type
   _atom_site_B_iso_or_equiv
   _atom_site_type_symbol
    H   1.0     0.168173     0.655042     0.841408  Biso 1.000000     H
    H   1.0     0.668165     0.655032     0.841393  Biso 1.000000     H
    H   1.0     0.238044     0.758284     0.724405  Biso 1.000000     H
    H   1.0     0.738045     0.758290     0.724404  Biso 1.000000     H
    H   1.0     0.076805     0.902309     0.719756  Biso 1.000000     H
    H   1.0     0.576805     0.902312     0.719756  Biso 1.000000     H
    H   1.0     0.506821     0.799650     0.837674  Biso 1.000000     H
    H   1.0     0.000000     0.799662     0.837686  Biso 1.000000     H
    H   1.0     0.081893     0.845747     0.341473  Biso 1.000000     H
    H   1.0     0.581894     0.845759     0.341463  Biso 1.000000     H
    H   1.0     0.011694     0.742136     0.225031  Biso 1.000000     H
    H   1.0     0.511680     0.742128     0.225041  Biso 1.000000     H
    H   1.0     0.172502     0.597440     0.218819  Biso 1.000000     H
    H   1.0     0.672492     0.597439     0.218820  Biso 1.000000     H
    H   1.0     0.242859     0.700548     0.336082  Biso 1.000000     H
    H   1.0     0.742864     0.700567     0.336063  Biso 1.000000     H
    H   1.0     0.331843     0.344977     0.158617  Biso 1.000000     H
    H   1.0     0.831840     0.344986     0.158629  Biso 1.000000     H
    H   1.0     0.261973     0.241734     0.275621  Biso 1.000000     H
    H   1.0     0.761964     0.241730     0.275621  Biso 1.000000     H
    H   1.0     0.423214     0.097712     0.280269  Biso 1.000000     H
    H   1.0     0.923204     0.097708     0.280265  Biso 1.000000     H
    H   1.0    -0.006808     0.200365     0.162341  Biso 1.000000     H
    H   1.0     0.493187     0.200358     0.162337  Biso 1.000000     H
    H   1.0     0.418117     0.154263     0.658560  Biso 1.000000     H
    H   1.0     0.918114     0.154266     0.658556  Biso 1.000000     H
    H   1.0     0.488323     0.257883     0.774993  Biso 1.000000     H
    H   1.0     0.988318     0.257880     0.774993  Biso 1.000000     H
    H   1.0     0.327516     0.402581     0.781203  Biso 1.000000     H
    H   1.0     0.827513     0.402581     0.781204  Biso 1.000000     H
    H   1.0     0.257153     0.299464     0.663949  Biso 1.000000     H
    H   1.0     0.757153     0.299470     0.663946  Biso 1.000000     H
    C   1.0     0.082959     0.721269     0.846002  Biso 1.000000     C
    C   1.0     0.582923     0.721216     0.845948  Biso 1.000000     C
    C   1.0     0.148436     0.709420     0.814942  Biso 1.000000     C
    C   1.0     0.648452     0.709448     0.814963  Biso 1.000000     C
    C   1.0     0.187481     0.766957     0.749718  Biso 1.000000     C
    C   1.0     0.687456     0.766924     0.749683  Biso 1.000000     C
    C   1.0     0.161027     0.835621     0.714709  Biso 1.000000     C
    C   1.0     0.661060     0.835678     0.714752  Biso 1.000000     C
    C   1.0     0.096262     0.848277     0.747172  Biso 1.000000     C
    C   1.0     0.596236     0.848241     0.747138  Biso 1.000000     C
    C   1.0     0.057627     0.791713     0.812432  Biso 1.000000     C
    C   1.0     0.557643     0.791741     0.812455  Biso 1.000000     C
    C   1.0     0.036326     0.658310     0.911381  Biso 1.000000     C
    C   1.0     0.536343     0.658336     0.911406  Biso 1.000000     C
    C   1.0     0.198678     0.894398     0.641348  Biso 1.000000     C
    C   1.0     0.698654     0.894359     0.641316  Biso 1.000000     C
    C   1.0     0.254923     0.529337     0.958906  Biso 1.000000     C
    C   1.0     0.754918     0.529306     0.958885  Biso 1.000000     C
    C   1.0     0.166955     0.779248     0.345181  Biso 1.000000     C
    C   1.0     0.667002     0.779333     0.345097  Biso 1.000000     C
    C   1.0     0.101500     0.791193     0.314756  Biso 1.000000     C
    C   1.0     0.601462     0.791146     0.314800  Biso 1.000000     C
    C   1.0     0.062233     0.733386     0.249887  Biso 1.000000     C
    C   1.0     0.562261     0.733440     0.249837  Biso 1.000000     C
    C   1.0     0.088487     0.664448     0.214578  Biso 1.000000     C
    C   1.0     0.588423     0.664360     0.214651  Biso 1.000000     C
    C   1.0     0.153214     0.651696     0.246445  Biso 1.000000     C
    C   1.0     0.653246     0.651757     0.246391  Biso 1.000000     C
    C   1.0     0.192083     0.708549     0.311288  Biso 1.000000     C
    C   1.0     0.692047     0.708504     0.311329  Biso 1.000000     C
    C   1.0     0.213973     0.842307     0.410082  Biso 1.000000     C
    C   1.0     0.713939     0.842267     0.410126  Biso 1.000000     C
    C   1.0     0.050729     0.605377     0.141511  Biso 1.000000     C
    C   1.0     0.550757     0.605443     0.141461  Biso 1.000000     C
    C   1.0     0.495459     0.970613     0.458924  Biso 1.000000     C
    C   1.0     0.995455     0.970604     0.458930  Biso 1.000000     C
    C   1.0     0.417063     0.278759     0.154030  Biso 1.000000     C
    C   1.0     0.917081     0.278800     0.154072  Biso 1.000000     C
    C   1.0     0.351577     0.290593     0.185077  Biso 1.000000     C
    C   1.0     0.851552     0.290569     0.185058  Biso 1.000000     C
    C   1.0     0.312541     0.233068     0.250313  Biso 1.000000     C
    C   1.0     0.812552     0.233096     0.250342  Biso 1.000000     C
    C   1.0     0.338984     0.164388     0.285309  Biso 1.000000     C
    C   1.0     0.838948     0.164341     0.285270  Biso 1.000000     C
    C   1.0     0.403760     0.151750     0.252859  Biso 1.000000     C
    C   1.0     0.903773     0.151779     0.252884  Biso 1.000000     C
    C   1.0     0.442386     0.208300     0.187585  Biso 1.000000     C
    C   1.0     0.942362     0.208274     0.187562  Biso 1.000000     C
    C   1.0     0.463684     0.341702     0.088634  Biso 1.000000     C
    C   1.0     0.963660     0.341680     0.088612  Biso 1.000000     C
    C   1.0     0.301345     0.105629     0.358685  Biso 1.000000     C
    C   1.0     0.801356     0.105662     0.358709  Biso 1.000000     C
    C   1.0     0.245087     0.470676     0.041108  Biso 1.000000     C
    C   1.0     0.745083     0.470709     0.041129  Biso 1.000000     C
    C   1.0     0.333040     0.220736     0.654878  Biso 1.000000     C
    C   1.0     0.833047     0.220755     0.654859  Biso 1.000000     C
    C   1.0     0.398527     0.208841     0.685255  Biso 1.000000     C
    C   1.0     0.898515     0.208831     0.685263  Biso 1.000000     C
    C   1.0     0.437769     0.266611     0.750158  Biso 1.000000     C
    C   1.0     0.937773     0.266622     0.750146  Biso 1.000000     C
    C   1.0     0.411549     0.335602     0.785421  Biso 1.000000     C
    C   1.0     0.911536     0.335585     0.785436  Biso 1.000000     C
    C   1.0     0.346788     0.348301     0.753599  Biso 1.000000     C
    C   1.0     0.846794     0.348315     0.753588  Biso 1.000000     C
    C   1.0     0.307944     0.291487     0.688721  Biso 1.000000     C
    C   1.0     0.807934     0.291478     0.688731  Biso 1.000000     C
    C   1.0     0.286054     0.157725     0.589928  Biso 1.000000     C
    C   1.0     0.786043     0.157717     0.589937  Biso 1.000000     C
    C   1.0     0.449276     0.394618     0.858529  Biso 1.000000     C
    C   1.0     0.949279     0.394629     0.858523  Biso 1.000000     C
    C   1.0     0.004558     0.029410     0.541093  Biso 1.000000     C
    C   1.0     0.504552     0.029400     0.541099  Biso 1.000000     C
    O   1.0     0.477291     0.672092     0.936454  Biso 1.000000     O
    O   1.0     0.977286     0.672099     0.936464  Biso 1.000000     O
    O   1.0     0.053528     0.587747     0.940260  Biso 1.000000     O
    O   1.0     0.553526     0.587744     0.940248  Biso 1.000000     O
    O   1.0     0.164385     0.945837     0.607830  Biso 1.000000     O
    O   1.0     0.664385     0.945847     0.607836  Biso 1.000000     O
    O   1.0     0.260954     0.890394     0.615033  Biso 1.000000     O
    O   1.0     0.760955     0.890405     0.615040  Biso 1.000000     O
    O   1.0     0.195411     0.531802     0.924291  Biso 1.000000     O
    O   1.0     0.695409     0.531752     0.924248  Biso 1.000000     O
    O   1.0     0.320560     0.569523     0.933852  Biso 1.000000     O
    O   1.0     0.820557     0.569498     0.933841  Biso 1.000000     O
    O   1.0     0.273269     0.828604     0.433764  Biso 1.000000     O
    O   1.0     0.773268     0.828614     0.433753  Biso 1.000000     O
    O   1.0     0.196844     0.912607     0.440142  Biso 1.000000     O
    O   1.0     0.696845     0.912617     0.440128  Biso 1.000000     O
    O   1.0     0.084925     0.553657     0.107781  Biso 1.000000     O
    O   1.0     0.584917     0.553652     0.107786  Biso 1.000000     O
    O   1.0    -0.011449     0.609467     0.115545  Biso 1.000000     O
    O   1.0     0.488537     0.609453     0.115554  Biso 1.000000     O
    O   1.0     0.055286     0.968180     0.424592  Biso 1.000000     O
    O   1.0     0.555281     0.968188     0.424586  Biso 1.000000     O
    O   1.0     0.430029     0.930255     0.433669  Biso 1.000000     O
    O   1.0     0.930025     0.930252     0.433670  Biso 1.000000     O
    O   1.0     0.022718     0.327921     0.063559  Biso 1.000000     O
    O   1.0     0.522717     0.327917     0.063554  Biso 1.000000     O
    O   1.0     0.446491     0.412278     0.059770  Biso 1.000000     O
    O   1.0     0.946481     0.412278     0.059777  Biso 1.000000     O
    O   1.0     0.335634     0.054182     0.392196  Biso 1.000000     O
    O   1.0     0.835624     0.054173     0.392191  Biso 1.000000     O
    O   1.0     0.239063     0.109621     0.384992  Biso 1.000000     O
    O   1.0     0.739055     0.109614     0.384986  Biso 1.000000     O
    O   1.0     0.304601     0.468203     0.075715  Biso 1.000000     O
    O   1.0     0.804594     0.468253     0.075757  Biso 1.000000     O
    O   1.0     0.179452     0.430497     0.066170  Biso 1.000000     O
    O   1.0     0.679446     0.430524     0.066182  Biso 1.000000     O
    O   1.0     0.226744     0.171406     0.566268  Biso 1.000000     O
    O   1.0     0.726740     0.171409     0.566267  Biso 1.000000     O
    O   1.0     0.303171     0.087407     0.559890  Biso 1.000000     O
    O   1.0     0.803167     0.087409     0.559888  Biso 1.000000     O
    O   1.0     0.415095     0.446366     0.892240  Biso 1.000000     O
    O   1.0     0.915087     0.446358     0.892246  Biso 1.000000     O
    O   1.0     0.511468     0.390554     0.884474  Biso 1.000000     O
    O   1.0     0.000000     0.390553     0.884475  Biso 1.000000     O
    O   1.0     0.444730     0.031829     0.575435  Biso 1.000000     O
    O   1.0     0.944725     0.031837     0.575427  Biso 1.000000     O
    O   1.0     0.069986     0.069759     0.566356  Biso 1.000000     O
    O   1.0     0.569981     0.069756     0.566358  Biso 1.000000     O
    Y   1.0     0.415564     0.533563     0.005668  Biso 1.000000     Y
    Y   1.0     0.915555     0.533560     0.005672  Biso 1.000000     Y
    Y   1.0     0.334323     0.966196     0.505007  Biso 1.000000     Y
    Y   1.0     0.834317     0.966195     0.505009  Biso 1.000000     Y
    Y   1.0     0.084450     0.466457     0.994353  Biso 1.000000     Y
    Y   1.0     0.584450     0.466460     0.994349  Biso 1.000000     Y
    Y   1.0     0.165694     0.033821     0.495018  Biso 1.000000     Y
    Y   1.0     0.665689     0.033821     0.495018  Biso 1.000000     Y
