#======================================================================

# CRYSTAL DATA

#----------------------------------------------------------------------

data_VESTA_phase_1


_pd_phase_name                         MOF
_cell_length_a                         17.55500
_cell_length_b                         15.26700
_cell_length_c                         15.26500
_cell_angle_alpha                      63.91500
_cell_angle_beta                       79.14600
_cell_angle_gamma                      100.86600
_symmetry_space_group_name_H-M         "P 1"
_symmetry_Int_Tables_number            1

loop_
_symmetry_equiv_pos_as_xyz
   "x, y, z"

loop_
   _atom_site_label
   _atom_site_occupancy
   _atom_site_fract_x
   _atom_site_fract_y
   _atom_site_fract_z
   _atom_site_adp_type
   _atom_site_B_iso_or_equiv
   _atom_site_type_symbol
    H   1.0     0.452339     0.471821     0.006243  Biso 1.000000     H
    H   1.0     0.952337     0.471822     0.006243  Biso 1.000000     H
    H   1.0     0.493003     0.474984     0.841935  Biso 1.000000     H
    H   1.0     0.993001     0.474984     0.841935  Biso 1.000000     H
    H   1.0     0.009870     0.167963     0.010943  Biso 1.000000     H
    H   1.0     0.509869     0.167962     0.010943  Biso 1.000000     H
    H   1.0     0.467428     0.178789     0.169284  Biso 1.000000     H
    H   1.0     0.967427     0.178790     0.169283  Biso 1.000000     H
    H   1.0     0.062421     0.425617     0.628850  Biso 1.000000     H
    H   1.0     0.562419     0.425617     0.628850  Biso 1.000000     H
    H   1.0     0.485929     0.447811     0.702979  Biso 1.000000     H
    H   1.0     0.985927     0.447812     0.702979  Biso 1.000000     H
    H   1.0     0.456881     0.004657     0.521049  Biso 1.000000     H
    H   1.0     0.956876     0.004658     0.521050  Biso 1.000000     H
    H   1.0     0.414446     0.842380     0.682394  Biso 1.000000     H
    H   1.0     0.914442     0.842380     0.682396  Biso 1.000000     H
    H   1.0     0.014161     0.015792     0.818889  Biso 1.000000     H
    H   1.0     0.514157     0.015793     0.818891  Biso 1.000000     H
    H   1.0     0.051706     0.171943     0.649640  Biso 1.000000     H
    H   1.0     0.551702     0.171944     0.649640  Biso 1.000000     H
    H   1.0     0.377069     0.632593     0.944870  Biso 1.000000     H
    H   1.0     0.877068     0.632593     0.944870  Biso 1.000000     H
    H   1.0     0.337301     0.705485     0.848411  Biso 1.000000     H
    H   1.0     0.837300     0.705485     0.848411  Biso 1.000000     H
    H   1.0     0.215840     0.521082     0.474569  Biso 1.000000     H
    H   1.0     0.715838     0.521083     0.474568  Biso 1.000000     H
    H   1.0     0.254060     0.682388     0.477626  Biso 1.000000     H
    H   1.0     0.754058     0.682389     0.477626  Biso 1.000000     H
    H   1.0     0.421601     0.816437     0.170767  Biso 1.000000     H
    H   1.0     0.921599     0.816438     0.170766  Biso 1.000000     H
    H   1.0     0.374620     0.647310     0.181646  Biso 1.000000     H
    H   1.0     0.874617     0.647312     0.181645  Biso 1.000000     H
    H   1.0     0.347808     0.943998     0.428822  Biso 1.000000     H
    H   1.0     0.847807     0.943999     0.428822  Biso 1.000000     H
    H   1.0     0.260182     0.848482     0.450638  Biso 1.000000     H
    H   1.0     0.760180     0.848483     0.450638  Biso 1.000000     H
    H   1.0     0.206888     0.478950     0.995342  Biso 1.000000     H
    H   1.0     0.706887     0.478951     0.995342  Biso 1.000000     H
    H   1.0     0.164415     0.317598     0.157626  Biso 1.000000     H
    H   1.0     0.664414     0.317599     0.157626  Biso 1.000000     H
    H   1.0     0.264101     0.181148     0.984169  Biso 1.000000     H
    H   1.0     0.764099     0.181148     0.984168  Biso 1.000000     H
    H   1.0     0.301683     0.350403     0.828022  Biso 1.000000     H
    H   1.0     0.801681     0.350404     0.828021  Biso 1.000000     H
    H   1.0     0.127017     0.055140     0.367409  Biso 1.000000     H
    H   1.0     0.627016     0.055141     0.367408  Biso 1.000000     H
    H   1.0     0.087250     0.151589     0.294518  Biso 1.000000     H
    H   1.0     0.587249     0.151589     0.294518  Biso 1.000000     H
    H   1.0     0.465813     0.525449     0.478887  Biso 1.000000     H
    H   1.0     0.965810     0.525450     0.478886  Biso 1.000000     H
    H   1.0     0.004046     0.522356     0.317590  Biso 1.000000     H
    H   1.0     0.504046     0.522354     0.317591  Biso 1.000000     H
    H   1.0     0.171635     0.829180     0.183527  Biso 1.000000     H
    H   1.0     0.671630     0.829181     0.183526  Biso 1.000000     H
    H   1.0     0.124641     0.818335     0.352646  Biso 1.000000     H
    H   1.0     0.624637     0.818336     0.352646  Biso 1.000000     H
    H   1.0     0.097796     0.571111     0.055994  Biso 1.000000     H
    H   1.0     0.597794     0.571111     0.055994  Biso 1.000000     H
    H   1.0     0.010176     0.549316     0.151493  Biso 1.000000     H
    H   1.0     0.510174     0.549315     0.151494  Biso 1.000000     H
    H   1.0     0.202382     0.993744     0.528154  Biso 1.000000     H
    H   1.0     0.702379     0.993744     0.528154  Biso 1.000000     H
    H   1.0     0.243028     0.158018     0.525020  Biso 1.000000     H
    H   1.0     0.743025     0.158018     0.525021  Biso 1.000000     H
    H   1.0     0.259878     0.989016     0.832091  Biso 1.000000     H
    H   1.0     0.759876     0.989017     0.832091  Biso 1.000000     H
    H   1.0     0.217455     0.830702     0.821231  Biso 1.000000     H
    H   1.0     0.717452     0.830703     0.821231  Biso 1.000000     H
    H   1.0     0.312417     0.371062     0.574440  Biso 1.000000     H
    H   1.0     0.812415     0.371063     0.574439  Biso 1.000000     H
    H   1.0     0.235924     0.296937     0.552232  Biso 1.000000     H
    H   1.0     0.735923     0.296938     0.552232  Biso 1.000000     H
    C   1.0     0.465811     0.405886     0.004062  Biso 1.000000     C
    C   1.0     0.965810     0.405886     0.004062  Biso 1.000000     C
    C   1.0     0.488648     0.406866     0.911455  Biso 1.000000     C
    C   1.0     0.988646     0.406866     0.911455  Biso 1.000000     C
    C   1.0     0.005057     0.320479     0.910721  Biso 1.000000     C
    C   1.0     0.505056     0.320479     0.910721  Biso 1.000000     C
    C   1.0     0.497231     0.236927     0.006051  Biso 1.000000     C
    C   1.0     0.997229     0.236927     0.006051  Biso 1.000000     C
    C   1.0     0.473865     0.242462     0.094808  Biso 1.000000     C
    C   1.0     0.973863     0.242462     0.094808  Biso 1.000000     C
    C   1.0     0.044950     0.432996     0.697975  Biso 1.000000     C
    C   1.0     0.544949     0.432996     0.697975  Biso 1.000000     C
    C   1.0     0.111052     0.521689     0.687727  Biso 1.000000     C
    C   1.0     0.611051     0.521689     0.687727  Biso 1.000000     C
    C   1.0     0.468586     0.003942     0.588910  Biso 1.000000     C
    C   1.0     0.968583     0.003942     0.588911  Biso 1.000000     C
    C   1.0     0.444622     0.912475     0.680642  Biso 1.000000     C
    C   1.0     0.944619     0.912475     0.680643  Biso 1.000000     C
    C   1.0     0.460001     0.913581     0.767337  Biso 1.000000     C
    C   1.0     0.960000     0.913581     0.767337  Biso 1.000000     C
    C   1.0     0.499613     0.009489     0.755129  Biso 1.000000     C
    C   1.0     0.999614     0.009489     0.755129  Biso 1.000000     C
    C   1.0     0.021074     0.097039     0.660798  Biso 1.000000     C
    C   1.0     0.521071     0.097039     0.660799  Biso 1.000000     C
    C   1.0     0.393748     0.700751     0.868574  Biso 1.000000     C
    C   1.0     0.893747     0.700752     0.868574  Biso 1.000000     C
    C   1.0     0.454526     0.688183     0.791646  Biso 1.000000     C
    C   1.0     0.954525     0.688184     0.791646  Biso 1.000000     C
    C   1.0     0.261402     0.588392     0.408606  Biso 1.000000     C
    C   1.0     0.761400     0.588393     0.408606  Biso 1.000000     C
    C   1.0     0.283285     0.680097     0.409549  Biso 1.000000     C
    C   1.0     0.783283     0.680098     0.409549  Biso 1.000000     C
    C   1.0     0.341915     0.766097     0.323256  Biso 1.000000     C
    C   1.0     0.841913     0.766098     0.323255  Biso 1.000000     C
    C   1.0     0.375279     0.753253     0.239707  Biso 1.000000     C
    C   1.0     0.875277     0.753254     0.239706  Biso 1.000000     C
    C   1.0     0.349625     0.658988     0.245252  Biso 1.000000     C
    C   1.0     0.849623     0.658989     0.245251  Biso 1.000000     C
    C   1.0     0.326425     0.867749     0.435994  Biso 1.000000     C
    C   1.0     0.826423     0.867750     0.435993  Biso 1.000000     C
    C   1.0     0.348832     0.790087     0.524636  Biso 1.000000     C
    C   1.0     0.848831     0.790087     0.524635  Biso 1.000000     C
    C   1.0     0.218576     0.411096     0.996050  Biso 1.000000     C
    C   1.0     0.718575     0.411096     0.996049  Biso 1.000000     C
    C   1.0     0.194596     0.319362     0.087524  Biso 1.000000     C
    C   1.0     0.694594     0.319363     0.087524  Biso 1.000000     C
    C   1.0     0.209955     0.232679     0.086407  Biso 1.000000     C
    C   1.0     0.709953     0.232679     0.086406  Biso 1.000000     C
    C   1.0     0.249572     0.244900     0.990482  Biso 1.000000     C
    C   1.0     0.749570     0.244901     0.990481  Biso 1.000000     C
    C   1.0     0.271047     0.339233     0.902934  Biso 1.000000     C
    C   1.0     0.771045     0.339234     0.902933  Biso 1.000000     C
    C   1.0     0.143696     0.131432     0.299244  Biso 1.000000     C
    C   1.0     0.643695     0.131432     0.299243  Biso 1.000000     C
    C   1.0     0.204487     0.208311     0.311867  Biso 1.000000     C
    C   1.0     0.704485     0.208312     0.311866  Biso 1.000000     C
    C   1.0     0.011388     0.591397     0.411575  Biso 1.000000     C
    C   1.0     0.511387     0.591396     0.411576  Biso 1.000000     C
    C   1.0     0.033281     0.590431     0.319876  Biso 1.000000     C
    C   1.0     0.533280     0.590430     0.319877  Biso 1.000000     C
    C   1.0     0.091924     0.676708     0.233873  Biso 1.000000     C
    C   1.0     0.591922     0.676708     0.233873  Biso 1.000000     C
    C   1.0     0.125301     0.760255     0.246713  Biso 1.000000     C
    C   1.0     0.625297     0.760255     0.246712  Biso 1.000000     C
    C   1.0     0.099637     0.754731     0.340973  Biso 1.000000     C
    C   1.0     0.599633     0.754731     0.340972  Biso 1.000000     C
    C   1.0     0.076417     0.563959     0.132242  Biso 1.000000     C
    C   1.0     0.576415     0.563958     0.132242  Biso 1.000000     C
    C   1.0     0.098829     0.475320     0.209894  Biso 1.000000     C
    C   1.0     0.598828     0.475320     0.209894  Biso 1.000000     C
    C   1.0     0.215845     0.995918     0.594108  Biso 1.000000     C
    C   1.0     0.715842     0.995918     0.594109  Biso 1.000000     C
    C   1.0     0.238675     0.088503     0.593142  Biso 1.000000     C
    C   1.0     0.738672     0.088504     0.593142  Biso 1.000000     C
    C   1.0     0.255072     0.089227     0.679553  Biso 1.000000     C
    C   1.0     0.755069     0.089228     0.679553  Biso 1.000000     C
    C   1.0     0.247250     0.993914     0.763108  Biso 1.000000     C
    C   1.0     0.747247     0.993915     0.763109  Biso 1.000000     C
    C   1.0     0.223889     0.905171     0.757557  Biso 1.000000     C
    C   1.0     0.723887     0.905172     0.757557  Biso 1.000000     C
    C   1.0     0.294945     0.301943     0.567055  Biso 1.000000     C
    C   1.0     0.794943     0.301944     0.567055  Biso 1.000000     C
    C   1.0     0.361065     0.312267     0.478338  Biso 1.000000     C
    C   1.0     0.861064     0.312267     0.478338  Biso 1.000000     C
    N   1.0     0.458009     0.325698     0.095303  Biso 1.000000     N
    N   1.0     0.958008     0.325699     0.095303  Biso 1.000000     N
    N   1.0     0.006197     0.095740     0.577439  Biso 1.000000     N
    N   1.0     0.506196     0.095740     0.577439  Biso 1.000000     N
    N   1.0     0.293187     0.576283     0.328469  Biso 1.000000     N
    N   1.0     0.793185     0.576284     0.328468  Biso 1.000000     N
    N   1.0     0.256192     0.422583     0.904242  Biso 1.000000     N
    N   1.0     0.756191     0.422584     0.904242  Biso 1.000000     N
    N   1.0     0.043183     0.671533     0.423679  Biso 1.000000     N
    N   1.0     0.543181     0.671532     0.423680  Biso 1.000000     N
    N   1.0     0.208045     0.904683     0.674297  Biso 1.000000     N
    N   1.0     0.708043     0.904684     0.674298  Biso 1.000000     N
    O   1.0     0.096730     0.608714     0.654318  Biso 1.000000     O
    O   1.0     0.596728     0.608713     0.654319  Biso 1.000000     O
    O   1.0     0.173247     0.504186     0.711024  Biso 1.000000     O
    O   1.0     0.673245     0.504186     0.711024  Biso 1.000000     O
    O   1.0     0.423516     0.652407     0.739367  Biso 1.000000     O
    O   1.0     0.923515     0.652407     0.739367  Biso 1.000000     O
    O   1.0     0.028213     0.712168     0.785607  Biso 1.000000     O
    O   1.0     0.528211     0.712168     0.785607  Biso 1.000000     O
    O   1.0     0.291503     0.736713     0.611223  Biso 1.000000     O
    O   1.0     0.791502     0.736714     0.611223  Biso 1.000000     O
    O   1.0     0.419797     0.784637     0.507507  Biso 1.000000     O
    O   1.0     0.919795     0.784637     0.507507  Biso 1.000000     O
    O   1.0     0.173498     0.260621     0.347600  Biso 1.000000     O
    O   1.0     0.673497     0.260621     0.347600  Biso 1.000000     O
    O   1.0     0.278171     0.214370     0.287851  Biso 1.000000     O
    O   1.0     0.778170     0.214371     0.287850  Biso 1.000000     O
    O   1.0     0.041485     0.388750     0.263303  Biso 1.000000     O
    O   1.0     0.541483     0.388750     0.263303  Biso 1.000000     O
    O   1.0     0.169786     0.492464     0.215383  Biso 1.000000     O
    O   1.0     0.669784     0.492465     0.215382  Biso 1.000000     O
    O   1.0     0.346723     0.345643     0.391312  Biso 1.000000     O
    O   1.0     0.846721     0.345644     0.391312  Biso 1.000000     O
    O   1.0     0.423244     0.288934     0.495854  Biso 1.000000     O
    O   1.0     0.923242     0.288934     0.495854  Biso 1.000000     O
    S   1.0     0.034219     0.308250     0.801764  Biso 1.000000     S
    S   1.0     0.534218     0.308250     0.801764  Biso 1.000000     S
    S   1.0     0.434305     0.806219     0.888504  Biso 1.000000     S
    S   1.0     0.934304     0.806219     0.888504  Biso 1.000000     S
    S   1.0     0.376763     0.887098     0.311143  Biso 1.000000     S
    S   1.0     0.876761     0.887098     0.311143  Biso 1.000000     S
    S   1.0     0.184233     0.111508     0.193765  Biso 1.000000     S
    S   1.0     0.684232     0.111508     0.193764  Biso 1.000000     S
    S   1.0     0.126777     0.688805     0.112871  Biso 1.000000     S
    S   1.0     0.626775     0.688805     0.112871  Biso 1.000000     S
    S   1.0     0.284225     0.198164     0.691809  Biso 1.000000     S
    S   1.0     0.784223     0.198165     0.691809  Biso 1.000000     S
   Cl   1.0     0.368854     0.512715     0.640098  Biso 1.000000    Cl
   Cl   1.0     0.868853     0.512715     0.640097  Biso 1.000000    Cl
   Cl   1.0     0.188857     0.640343     0.848476  Biso 1.000000    Cl
   Cl   1.0     0.688856     0.640344     0.848476  Biso 1.000000    Cl
   Cl   1.0     0.111107     0.846059     0.514769  Biso 1.000000    Cl
   Cl   1.0     0.611105     0.846059     0.514769  Biso 1.000000    Cl
   Cl   1.0     0.438818     0.151515     0.359670  Biso 1.000000    Cl
   Cl   1.0     0.938816     0.151516     0.359670  Biso 1.000000    Cl
   Cl   1.0     0.361083     0.485186     0.153943  Biso 1.000000    Cl
   Cl   1.0     0.861082     0.485187     0.153943  Biso 1.000000    Cl
   Cl   1.0     0.118868     0.359864     0.487322  Biso 1.000000    Cl
   Cl   1.0     0.618866     0.359864     0.487322  Biso 1.000000    Cl
   Cd   1.0     0.495420     0.674546     0.576782  Biso 1.000000    Cd
   Cd   1.0     0.995419     0.674547     0.576782  Biso 1.000000    Cd
   Cd   1.0     0.283882     0.575346     0.750115  Biso 1.000000    Cd
   Cd   1.0     0.783880     0.575347     0.750114  Biso 1.000000    Cd
   Cd   1.0     0.157674     0.748922     0.677143  Biso 1.000000    Cd
   Cd   1.0     0.657672     0.748922     0.677143  Biso 1.000000    Cd
   Cd   1.0     0.033868     0.249865     0.424678  Biso 1.000000    Cd
   Cd   1.0     0.533867     0.249865     0.424678  Biso 1.000000    Cd
   Cd   1.0     0.407642     0.322831     0.251086  Biso 1.000000    Cd
   Cd   1.0     0.907641     0.322832     0.251085  Biso 1.000000    Cd
   Cd   1.0     0.245419     0.423181     0.325474  Biso 1.000000    Cd
   Cd   1.0     0.745417     0.423181     0.325474  Biso 1.000000    Cd
