#======================================================================

# CRYSTAL DATA

#----------------------------------------------------------------------

data_VESTA_phase_1


_pd_phase_name                         MOF
_cell_length_a                         20.75200
_cell_length_b                         20.66700
_cell_length_c                         14.04300
_cell_angle_alpha                      89.84500
_cell_angle_beta                       89.93100
_cell_angle_gamma                      89.74700
_symmetry_space_group_name_H-M         "P 1"
_symmetry_Int_Tables_number            1

loop_
_symmetry_equiv_pos_as_xyz
   "x, y, z"

loop_
   _atom_site_label
   _atom_site_occupancy
   _atom_site_fract_x
   _atom_site_fract_y
   _atom_site_fract_z
   _atom_site_adp_type
   _atom_site_B_iso_or_equiv
   _atom_site_type_symbol
    H   1.0     0.265013     0.035290     0.395834  Biso 1.000000     H
    H   1.0     0.265012     0.535280     0.395835  Biso 1.000000     H
    H   1.0     0.765006     0.035290     0.395834  Biso 1.000000     H
    H   1.0     0.765005     0.535281     0.395835  Biso 1.000000     H
    H   1.0     0.234780     0.465725     0.895307  Biso 1.000000     H
    H   1.0     0.234779     0.965718     0.895307  Biso 1.000000     H
    H   1.0     0.734773     0.465726     0.895306  Biso 1.000000     H
    H   1.0     0.734772     0.965720     0.895307  Biso 1.000000     H
    H   1.0     0.461614     0.263930     0.644538  Biso 1.000000     H
    H   1.0     0.461609     0.763922     0.644536  Biso 1.000000     H
    H   1.0     0.961605     0.263929     0.644537  Biso 1.000000     H
    H   1.0     0.961604     0.763922     0.644537  Biso 1.000000     H
    H   1.0     0.037141     0.235928     0.143366  Biso 1.000000     H
    H   1.0     0.037140     0.735921     0.143366  Biso 1.000000     H
    H   1.0     0.537137     0.235929     0.143365  Biso 1.000000     H
    H   1.0     0.537137     0.735921     0.143363  Biso 1.000000     H
    H   1.0     0.234772     0.038372     0.607168  Biso 1.000000     H
    H   1.0     0.234771     0.538365     0.607169  Biso 1.000000     H
    H   1.0     0.734765     0.038373     0.607169  Biso 1.000000     H
    H   1.0     0.734763     0.538365     0.607168  Biso 1.000000     H
    H   1.0     0.265847     0.465096     0.106902  Biso 1.000000     H
    H   1.0     0.265847     0.965088     0.106902  Biso 1.000000     H
    H   1.0     0.765840     0.465096     0.106902  Biso 1.000000     H
    H   1.0     0.765839     0.965089     0.106901  Biso 1.000000     H
    H   1.0     0.035183     0.264981     0.357377  Biso 1.000000     H
    H   1.0     0.035181     0.764973     0.357377  Biso 1.000000     H
    H   1.0     0.535177     0.264981     0.357378  Biso 1.000000     H
    H   1.0     0.535171     0.764974     0.357375  Biso 1.000000     H
    H   1.0     0.464732     0.237443     0.855764  Biso 1.000000     H
    H   1.0     0.464732     0.737435     0.855764  Biso 1.000000     H
    H   1.0     0.964722     0.237443     0.855766  Biso 1.000000     H
    H   1.0     0.964721     0.737435     0.855766  Biso 1.000000     H
    H   1.0     0.444772     0.000417     0.251614  Biso 1.000000     H
    H   1.0     0.444771     0.500408     0.251614  Biso 1.000000     H
    H   1.0     0.944765     0.000418     0.251613  Biso 1.000000     H
    H   1.0     0.944764     0.500410     0.251613  Biso 1.000000     H
    H   1.0     0.055437     0.000191     0.750160  Biso 1.000000     H
    H   1.0     0.055436     0.500183     0.750160  Biso 1.000000     H
    H   1.0     0.555430     0.000193     0.750161  Biso 1.000000     H
    H   1.0     0.555429     0.500185     0.750160  Biso 1.000000     H
    H   1.0     0.000700     0.444732     0.503173  Biso 1.000000     H
    H   1.0     0.000700     0.944725     0.503174  Biso 1.000000     H
    H   1.0     0.500696     0.444732     0.503174  Biso 1.000000     H
    H   1.0     0.500694     0.944725     0.503175  Biso 1.000000     H
    H   1.0     0.001456     0.056417    -0.001480  Biso 1.000000     H
    H   1.0     0.000000     0.556410    -0.001479  Biso 1.000000     H
    H   1.0     0.501450     0.056418    -0.001481  Biso 1.000000     H
    H   1.0     0.501449     0.556410    -0.001482  Biso 1.000000     H
    C   1.0     0.291758     0.019997     0.332962  Biso 1.000000     C
    C   1.0     0.291757     0.519988     0.332963  Biso 1.000000     C
    C   1.0     0.791751     0.019997     0.332962  Biso 1.000000     C
    C   1.0     0.791750     0.519989     0.332962  Biso 1.000000     C
    C   1.0     0.359230     0.019536     0.333290  Biso 1.000000     C
    C   1.0     0.359229     0.519526     0.333290  Biso 1.000000     C
    C   1.0     0.859223     0.019537     0.333289  Biso 1.000000     C
    C   1.0     0.859222     0.519528     0.333290  Biso 1.000000     C
    C   1.0     0.397375     0.037487     0.418997  Biso 1.000000     C
    C   1.0     0.397374     0.537478     0.418997  Biso 1.000000     C
    C   1.0     0.897368     0.037487     0.418997  Biso 1.000000     C
    C   1.0     0.897367     0.537479     0.418997  Biso 1.000000     C
    C   1.0     0.208251     0.481359     0.832399  Biso 1.000000     C
    C   1.0     0.208251     0.981353     0.832400  Biso 1.000000     C
    C   1.0     0.708244     0.481360     0.832399  Biso 1.000000     C
    C   1.0     0.708243     0.981354     0.832400  Biso 1.000000     C
    C   1.0     0.140802     0.481388     0.832342  Biso 1.000000     C
    C   1.0     0.140802     0.981380     0.832342  Biso 1.000000     C
    C   1.0     0.640795     0.481389     0.832342  Biso 1.000000     C
    C   1.0     0.640794     0.981383     0.832343  Biso 1.000000     C
    C   1.0     0.102854     0.462770     0.918170  Biso 1.000000     C
    C   1.0     0.102853     0.962763     0.918170  Biso 1.000000     C
    C   1.0     0.602847     0.462771     0.918169  Biso 1.000000     C
    C   1.0     0.602846     0.962764     0.918170  Biso 1.000000     C
    C   1.0     0.477884     0.290708     0.582146  Biso 1.000000     C
    C   1.0     0.477880     0.790700     0.582144  Biso 1.000000     C
    C   1.0     0.977876     0.290707     0.582145  Biso 1.000000     C
    C   1.0     0.977874     0.790700     0.582145  Biso 1.000000     C
    C   1.0     0.479447     0.358491     0.583447  Biso 1.000000     C
    C   1.0     0.479443     0.858484     0.583445  Biso 1.000000     C
    C   1.0     0.979437     0.358490     0.583446  Biso 1.000000     C
    C   1.0     0.979437     0.858483     0.583446  Biso 1.000000     C
    C   1.0     0.461515     0.394992     0.670923  Biso 1.000000     C
    C   1.0     0.461513     0.894985     0.670922  Biso 1.000000     C
    C   1.0     0.961506     0.394992     0.670922  Biso 1.000000     C
    C   1.0     0.961506     0.894984     0.670922  Biso 1.000000     C
    C   1.0     0.021365     0.209714     0.080455  Biso 1.000000     C
    C   1.0     0.021366     0.709706     0.080455  Biso 1.000000     C
    C   1.0     0.521361     0.209714     0.080454  Biso 1.000000     C
    C   1.0     0.521361     0.709707     0.080453  Biso 1.000000     C
    C   1.0     0.020767     0.141964     0.080514  Biso 1.000000     C
    C   1.0     0.020763     0.641956     0.080515  Biso 1.000000     C
    C   1.0     0.520762     0.141964     0.080513  Biso 1.000000     C
    C   1.0     0.520761     0.641957     0.080512  Biso 1.000000     C
    C   1.0     0.039047     0.104263     0.166969  Biso 1.000000     C
    C   1.0     0.039044     0.604255     0.166970  Biso 1.000000     C
    C   1.0     0.539040     0.104263     0.166969  Biso 1.000000     C
    C   1.0     0.539040     0.604256     0.166968  Biso 1.000000     C
    C   1.0     0.208267     0.022297     0.669834  Biso 1.000000     C
    C   1.0     0.208266     0.522288     0.669833  Biso 1.000000     C
    C   1.0     0.708260     0.022297     0.669834  Biso 1.000000     C
    C   1.0     0.708258     0.522290     0.669833  Biso 1.000000     C
    C   1.0     0.140802     0.020967     0.669184  Biso 1.000000     C
    C   1.0     0.140801     0.520961     0.669185  Biso 1.000000     C
    C   1.0     0.640795     0.020971     0.669185  Biso 1.000000     C
    C   1.0     0.640794     0.520962     0.669184  Biso 1.000000     C
    C   1.0     0.102863     0.038899     0.583033  Biso 1.000000     C
    C   1.0     0.102862     0.538892     0.583033  Biso 1.000000     C
    C   1.0     0.602856     0.038901     0.583033  Biso 1.000000     C
    C   1.0     0.602855     0.538893     0.583032  Biso 1.000000     C
    C   1.0     0.292213     0.480476     0.169865  Biso 1.000000     C
    C   1.0     0.292213     0.980468     0.169865  Biso 1.000000     C
    C   1.0     0.792206     0.480477     0.169865  Biso 1.000000     C
    C   1.0     0.792206     0.980469     0.169864  Biso 1.000000     C
    C   1.0     0.359684     0.481225     0.169724  Biso 1.000000     C
    C   1.0     0.359684     0.981219     0.169723  Biso 1.000000     C
    C   1.0     0.859677     0.481226     0.169723  Biso 1.000000     C
    C   1.0     0.859676     0.981219     0.169723  Biso 1.000000     C
    C   1.0     0.398509     0.463440     0.084277  Biso 1.000000     C
    C   1.0     0.398508     0.963433     0.084277  Biso 1.000000     C
    C   1.0     0.898501     0.463440     0.084277  Biso 1.000000     C
    C   1.0     0.898501     0.963433     0.084277  Biso 1.000000     C
    C   1.0     0.019298     0.291303     0.420312  Biso 1.000000     C
    C   1.0     0.019296     0.791296     0.420312  Biso 1.000000     C
    C   1.0     0.519292     0.291304     0.420313  Biso 1.000000     C
    C   1.0     0.519287     0.791297     0.420311  Biso 1.000000     C
    C   1.0     0.019304     0.359053     0.420605  Biso 1.000000     C
    C   1.0     0.019304     0.859046     0.420605  Biso 1.000000     C
    C   1.0     0.519299     0.359053     0.420606  Biso 1.000000     C
    C   1.0     0.519296     0.859046     0.420605  Biso 1.000000     C
    C   1.0     0.038501     0.396319     0.334193  Biso 1.000000     C
    C   1.0     0.038500     0.896311     0.334193  Biso 1.000000     C
    C   1.0     0.538495     0.396319     0.334193  Biso 1.000000     C
    C   1.0     0.538493     0.896312     0.334193  Biso 1.000000     C
    C   1.0     0.480634     0.210547     0.918335  Biso 1.000000     C
    C   1.0     0.480634     0.710539     0.918334  Biso 1.000000     C
    C   1.0     0.980624     0.210546     0.918336  Biso 1.000000     C
    C   1.0     0.980624     0.710539     0.918336  Biso 1.000000     C
    C   1.0     0.481587     0.142759     0.917502  Biso 1.000000     C
    C   1.0     0.481586     0.642752     0.917501  Biso 1.000000     C
    C   1.0     0.981577     0.142759     0.917503  Biso 1.000000     C
    C   1.0     0.981573     0.642752     0.917504  Biso 1.000000     C
    C   1.0     0.463354     0.105956     0.830679  Biso 1.000000     C
    C   1.0     0.463353     0.605949     0.830678  Biso 1.000000     C
    C   1.0     0.963346     0.105956     0.830679  Biso 1.000000     C
    C   1.0     0.963344     0.605949     0.830679  Biso 1.000000     C
    C   1.0     0.258472     0.000138     0.251406  Biso 1.000000     C
    C   1.0     0.258471     0.500129     0.251407  Biso 1.000000     C
    C   1.0     0.758465     0.000139     0.251406  Biso 1.000000     C
    C   1.0     0.758464     0.500130     0.251407  Biso 1.000000     C
    C   1.0     0.186289     0.000016     0.251555  Biso 1.000000     C
    C   1.0     0.186288     0.500008     0.251556  Biso 1.000000     C
    C   1.0     0.686282     0.000016     0.251555  Biso 1.000000     C
    C   1.0     0.686281     0.500009     0.251556  Biso 1.000000     C
    C   1.0     0.392484     0.000411     0.251568  Biso 1.000000     C
    C   1.0     0.392483     0.500403     0.251567  Biso 1.000000     C
    C   1.0     0.892477     0.000411     0.251567  Biso 1.000000     C
    C   1.0     0.892476     0.500404     0.251567  Biso 1.000000     C
    C   1.0     0.241756     0.002096     0.751285  Biso 1.000000     C
    C   1.0     0.241755     0.502089     0.751286  Biso 1.000000     C
    C   1.0     0.741749     0.002098     0.751287  Biso 1.000000     C
    C   1.0     0.741748     0.502090     0.751285  Biso 1.000000     C
    C   1.0     0.313864     0.002364     0.751740  Biso 1.000000     C
    C   1.0     0.313863     0.502357     0.751741  Biso 1.000000     C
    C   1.0     0.813856     0.002365     0.751741  Biso 1.000000     C
    C   1.0     0.813855     0.502357     0.751740  Biso 1.000000     C
    C   1.0     0.107716     0.000804     0.750542  Biso 1.000000     C
    C   1.0     0.107715     0.500796     0.750540  Biso 1.000000     C
    C   1.0     0.607709     0.000805     0.750541  Biso 1.000000     C
    C   1.0     0.607708     0.500797     0.750541  Biso 1.000000     C
    C   1.0    -0.001704     0.257322     0.500859  Biso 1.000000     C
    C   1.0    -0.001704     0.757315     0.500860  Biso 1.000000     C
    C   1.0     0.498291     0.257323     0.500861  Biso 1.000000     C
    C   1.0     0.498286     0.757316     0.500858  Biso 1.000000     C
    C   1.0    -0.001595     0.184867     0.500128  Biso 1.000000     C
    C   1.0    -0.001596     0.684860     0.500128  Biso 1.000000     C
    C   1.0     0.498399     0.184867     0.500129  Biso 1.000000     C
    C   1.0     0.498394     0.684860     0.500127  Biso 1.000000     C
    C   1.0    -0.000181     0.392192     0.502471  Biso 1.000000     C
    C   1.0    -0.000182     0.892185     0.502470  Biso 1.000000     C
    C   1.0     0.499814     0.392192     0.502471  Biso 1.000000     C
    C   1.0     0.499811     0.892185     0.502471  Biso 1.000000     C
    C   1.0     0.000928     0.243818    -0.000393  Biso 1.000000     C
    C   1.0     0.000925     0.743810    -0.000391  Biso 1.000000     C
    C   1.0     0.500923     0.243818    -0.000395  Biso 1.000000     C
    C   1.0     0.500923     0.743811    -0.000395  Biso 1.000000     C
    C   1.0     0.000757     0.316287     0.000218  Biso 1.000000     C
    C   1.0     0.000757     0.816280     0.000218  Biso 1.000000     C
    C   1.0     0.500752     0.316287     0.000217  Biso 1.000000     C
    C   1.0     0.500752     0.816280     0.000216  Biso 1.000000     C
    C   1.0     0.001254     0.108966    -0.001180  Biso 1.000000     C
    C   1.0     0.001253     0.608959    -0.001181  Biso 1.000000     C
    C   1.0     0.501249     0.108967    -0.001181  Biso 1.000000     C
    C   1.0     0.501249     0.608959    -0.001182  Biso 1.000000     C
    O   1.0     0.369933     0.041007     0.499900  Biso 1.000000     O
    O   1.0     0.369932     0.540998     0.499900  Biso 1.000000     O
    O   1.0     0.869926     0.041006     0.499900  Biso 1.000000     O
    O   1.0     0.869925     0.540999     0.499900  Biso 1.000000     O
    O   1.0     0.158071     0.041819     0.303605  Biso 1.000000     O
    O   1.0     0.158070     0.541811     0.303605  Biso 1.000000     O
    O   1.0     0.658064     0.041819     0.303605  Biso 1.000000     O
    O   1.0     0.658063     0.541812     0.303605  Biso 1.000000     O
    O   1.0     0.457879     0.047160     0.408616  Biso 1.000000     O
    O   1.0     0.457878     0.547152     0.408616  Biso 1.000000     O
    O   1.0     0.957872     0.047160     0.408616  Biso 1.000000     O
    O   1.0     0.957871     0.547152     0.408615  Biso 1.000000     O
    O   1.0     0.130590     0.458502     0.998637  Biso 1.000000     O
    O   1.0     0.130589     0.958496     0.998638  Biso 1.000000     O
    O   1.0     0.630583     0.458503     0.998637  Biso 1.000000     O
    O   1.0     0.630582     0.958495     0.998638  Biso 1.000000     O
    O   1.0     0.341972     0.460562     0.804130  Biso 1.000000     O
    O   1.0     0.341971     0.960555     0.804131  Biso 1.000000     O
    O   1.0     0.841964     0.460562     0.804130  Biso 1.000000     O
    O   1.0     0.841963     0.960555     0.804130  Biso 1.000000     O
    O   1.0     0.042254     0.453376     0.908473  Biso 1.000000     O
    O   1.0     0.042253     0.953371     0.908474  Biso 1.000000     O
    O   1.0     0.542247     0.453377     0.908473  Biso 1.000000     O
    O   1.0     0.542246     0.953370     0.908473  Biso 1.000000     O
    O   1.0     0.455296     0.365088     0.749608  Biso 1.000000     O
    O   1.0     0.455295     0.865081     0.749607  Biso 1.000000     O
    O   1.0     0.955289     0.365087     0.749607  Biso 1.000000     O
    O   1.0     0.955288     0.865079     0.749607  Biso 1.000000     O
    O   1.0     0.456024     0.156302     0.550367  Biso 1.000000     O
    O   1.0     0.456021     0.656294     0.550366  Biso 1.000000     O
    O   1.0     0.956017     0.156302     0.550367  Biso 1.000000     O
    O   1.0     0.956015     0.656294     0.550367  Biso 1.000000     O
    O   1.0     0.454483     0.456711     0.666172  Biso 1.000000     O
    O   1.0     0.454481     0.956704     0.666172  Biso 1.000000     O
    O   1.0     0.954474     0.456711     0.666172  Biso 1.000000     O
    O   1.0     0.954474     0.956703     0.666172  Biso 1.000000     O
    O   1.0     0.044246     0.132901     0.246652  Biso 1.000000     O
    O   1.0     0.044246     0.632894     0.246652  Biso 1.000000     O
    O   1.0     0.544239     0.132901     0.246652  Biso 1.000000     O
    O   1.0     0.544238     0.632894     0.246651  Biso 1.000000     O
    O   1.0     0.043239     0.343942     0.051100  Biso 1.000000     O
    O   1.0     0.043242     0.843935     0.051095  Biso 1.000000     O
    O   1.0     0.543235     0.343943     0.051097  Biso 1.000000     O
    O   1.0     0.543235     0.843935     0.051096  Biso 1.000000     O
    O   1.0     0.047343     0.043047     0.159212  Biso 1.000000     O
    O   1.0     0.047343     0.543040     0.159212  Biso 1.000000     O
    O   1.0     0.547336     0.043047     0.159212  Biso 1.000000     O
    O   1.0     0.547335     0.543040     0.159212  Biso 1.000000     O
    O   1.0     0.130942     0.044003     0.502917  Biso 1.000000     O
    O   1.0     0.130941     0.543993     0.502916  Biso 1.000000     O
    O   1.0     0.630935     0.044001     0.502917  Biso 1.000000     O
    O   1.0     0.630934     0.543995     0.502916  Biso 1.000000     O
    O   1.0     0.341949     0.044256     0.699757  Biso 1.000000     O
    O   1.0     0.341948     0.544248     0.699757  Biso 1.000000     O
    O   1.0     0.841942     0.044255     0.699757  Biso 1.000000     O
    O   1.0     0.841941     0.544248     0.699757  Biso 1.000000     O
    O   1.0     0.041866     0.046870     0.591755  Biso 1.000000     O
    O   1.0     0.041865     0.546862     0.591755  Biso 1.000000     O
    O   1.0     0.541858     0.046870     0.591755  Biso 1.000000     O
    O   1.0     0.541857     0.546863     0.591755  Biso 1.000000     O
    O   1.0     0.371840     0.460957     0.002879  Biso 1.000000     O
    O   1.0     0.371839     0.960949     0.002879  Biso 1.000000     O
    O   1.0     0.871833     0.460957     0.002879  Biso 1.000000     O
    O   1.0     0.871832     0.960949     0.002879  Biso 1.000000     O
    O   1.0     0.158389     0.458157     0.199738  Biso 1.000000     O
    O   1.0     0.158389     0.958149     0.199738  Biso 1.000000     O
    O   1.0     0.658382     0.458157     0.199738  Biso 1.000000     O
    O   1.0     0.658382     0.958149     0.199738  Biso 1.000000     O
    O   1.0     0.458767     0.452825     0.095667  Biso 1.000000     O
    O   1.0     0.458766     0.952817     0.095667  Biso 1.000000     O
    O   1.0     0.958759     0.452825     0.095667  Biso 1.000000     O
    O   1.0     0.958758     0.952817     0.095667  Biso 1.000000     O
    O   1.0     0.044240     0.367314     0.254825  Biso 1.000000     O
    O   1.0     0.044238     0.867307     0.254825  Biso 1.000000     O
    O   1.0     0.544232     0.367315     0.254825  Biso 1.000000     O
    O   1.0     0.544231     0.867307     0.254825  Biso 1.000000     O
    O   1.0     0.041204     0.157270     0.449198  Biso 1.000000     O
    O   1.0     0.041203     0.657263     0.449198  Biso 1.000000     O
    O   1.0     0.541197     0.157270     0.449198  Biso 1.000000     O
    O   1.0     0.541194     0.657264     0.449197  Biso 1.000000     O
    O   1.0     0.047090     0.457490     0.341507  Biso 1.000000     O
    O   1.0     0.047089     0.957482     0.341507  Biso 1.000000     O
    O   1.0     0.547083     0.457490     0.341507  Biso 1.000000     O
    O   1.0     0.547082     0.957483     0.341507  Biso 1.000000     O
    O   1.0     0.457916     0.135263     0.751306  Biso 1.000000     O
    O   1.0     0.457915     0.635256     0.751305  Biso 1.000000     O
    O   1.0     0.957908     0.135263     0.751306  Biso 1.000000     O
    O   1.0     0.957909     0.635256     0.751306  Biso 1.000000     O
    O   1.0     0.458176     0.344726     0.949938  Biso 1.000000     O
    O   1.0     0.458176     0.844719     0.949938  Biso 1.000000     O
    O   1.0     0.958168     0.344726     0.949938  Biso 1.000000     O
    O   1.0     0.958169     0.844719     0.949937  Biso 1.000000     O
    O   1.0     0.455190     0.044590     0.837207  Biso 1.000000     O
    O   1.0     0.455188     0.544582     0.837206  Biso 1.000000     O
    O   1.0     0.955182     0.044589     0.837206  Biso 1.000000     O
    O   1.0     0.955182     0.544582     0.837206  Biso 1.000000     O
    Y   1.0     0.437755     0.062272     0.628025  Biso 1.000000     Y
    Y   1.0     0.437754     0.562264     0.628025  Biso 1.000000     Y
    Y   1.0     0.937748     0.062271     0.628025  Biso 1.000000     Y
    Y   1.0     0.937747     0.562264     0.628025  Biso 1.000000     Y
    Y   1.0     0.063238     0.437685     0.127618  Biso 1.000000     Y
    Y   1.0     0.063238     0.937678     0.127617  Biso 1.000000     Y
    Y   1.0     0.563231     0.437685     0.127617  Biso 1.000000     Y
    Y   1.0     0.563230     0.937678     0.127618  Biso 1.000000     Y
    Y   1.0     0.438142     0.439194     0.873145  Biso 1.000000     Y
    Y   1.0     0.438141     0.939186     0.873145  Biso 1.000000     Y
    Y   1.0     0.938134     0.439193     0.873144  Biso 1.000000     Y
    Y   1.0     0.938134     0.939186     0.873144  Biso 1.000000     Y
    Y   1.0     0.062301     0.062795     0.374575  Biso 1.000000     Y
    Y   1.0     0.062300     0.562788     0.374575  Biso 1.000000     Y
    Y   1.0     0.562293     0.062795     0.374575  Biso 1.000000     Y
    Y   1.0     0.562292     0.562788     0.374574  Biso 1.000000     Y
