#======================================================================

# CRYSTAL DATA

#----------------------------------------------------------------------

data_VESTA_phase_1


_pd_phase_name                         MOF
_cell_length_a                         18.41900
_cell_length_b                         18.42500
_cell_length_c                         18.42500
_cell_angle_alpha                      60.21900
_cell_angle_beta                       60.19000
_cell_angle_gamma                      60.19200
_symmetry_space_group_name_H-M         "P 1"
_symmetry_Int_Tables_number            1

loop_
_symmetry_equiv_pos_as_xyz
   "x, y, z"

loop_
   _atom_site_label
   _atom_site_occupancy
   _atom_site_fract_x
   _atom_site_fract_y
   _atom_site_fract_z
   _atom_site_adp_type
   _atom_site_B_iso_or_equiv
   _atom_site_type_symbol
    H   1.0     0.048594     0.567812     0.048614  Biso 1.000000     H
    H   1.0     0.568213     0.048178     0.335719  Biso 1.000000     H
    H   1.0     0.047545     0.335747     0.047592  Biso 1.000000     H
    H   1.0     0.335612     0.048281     0.568054  Biso 1.000000     H
    H   1.0     0.047547     0.047596     0.335739  Biso 1.000000     H
    H   1.0     0.568212     0.335727     0.048177  Biso 1.000000     H
    H   1.0     0.048595     0.048607     0.567810  Biso 1.000000     H
    H   1.0     0.335614     0.568052     0.048293  Biso 1.000000     H
    H   1.0     0.048225     0.335724     0.568046  Biso 1.000000     H
    H   1.0     0.567913     0.048551     0.048551  Biso 1.000000     H
    H   1.0     0.048230     0.568045     0.335719  Biso 1.000000     H
    H   1.0     0.335643     0.047648     0.047649  Biso 1.000000     H
    H   1.0     0.432075     0.951444     0.951442  Biso 1.000000     H
    H   1.0     0.951757     0.431951     0.664273  Biso 1.000000     H
    H   1.0     0.664345     0.952347     0.952344  Biso 1.000000     H
    H   1.0     0.951762     0.664272     0.431946  Biso 1.000000     H
    H   1.0     0.952441     0.952402     0.664253  Biso 1.000000     H
    H   1.0     0.664374     0.431945     0.951699  Biso 1.000000     H
    H   1.0     0.951393     0.951390     0.432182  Biso 1.000000     H
    H   1.0     0.431777     0.664270     0.951815  Biso 1.000000     H
    H   1.0     0.664376     0.951716     0.431939  Biso 1.000000     H
    H   1.0     0.951392     0.432184     0.951380  Biso 1.000000     H
    H   1.0     0.431775     0.951819     0.664274  Biso 1.000000     H
    H   1.0     0.952441     0.664249     0.952403  Biso 1.000000     H
    C   1.0     0.026920     0.538871     0.026935  Biso 1.000000     C
    C   1.0     0.539109     0.026690     0.407683  Biso 1.000000     C
    C   1.0     0.026333     0.407701     0.026367  Biso 1.000000     C
    C   1.0     0.407624     0.026745     0.539023  Biso 1.000000     C
    C   1.0     0.026332     0.026370     0.407694  Biso 1.000000     C
    C   1.0     0.539110     0.407690     0.026701  Biso 1.000000     C
    C   1.0     0.026918     0.026932     0.538868  Biso 1.000000     C
    C   1.0     0.407626     0.539024     0.026763  Biso 1.000000     C
    C   1.0     0.026727     0.407687     0.539021  Biso 1.000000     C
    C   1.0     0.538923     0.026898     0.026901  Biso 1.000000     C
    C   1.0     0.026730     0.539021     0.407683  Biso 1.000000     C
    C   1.0     0.407644     0.026394     0.026397  Biso 1.000000     C
    C   1.0     0.461065     0.973097     0.973091  Biso 1.000000     C
    C   1.0     0.973259     0.460975     0.592309  Biso 1.000000     C
    C   1.0     0.592345     0.973601     0.973595  Biso 1.000000     C
    C   1.0     0.973262     0.592309     0.460971  Biso 1.000000     C
    C   1.0     0.973656     0.973628     0.592297  Biso 1.000000     C
    C   1.0     0.592362     0.460973     0.973235  Biso 1.000000     C
    C   1.0     0.973070     0.973065     0.461124  Biso 1.000000     C
    C   1.0     0.460878     0.592307     0.973296  Biso 1.000000     C
    C   1.0     0.592364     0.973244     0.460970  Biso 1.000000     C
    C   1.0     0.973068     0.461125     0.973057  Biso 1.000000     C
    C   1.0     0.460879     0.973299     0.592309  Biso 1.000000     C
    C   1.0     0.973655     0.592295     0.973626  Biso 1.000000     C
    C   1.0     0.110908     0.388832     0.110992  Biso 1.000000     C
    C   1.0     0.053608     0.446226     0.053650  Biso 1.000000     C
    C   1.0     0.389107     0.111269     0.389072  Biso 1.000000     C
    C   1.0     0.446402     0.053813     0.446376  Biso 1.000000     C
    C   1.0     0.110908     0.110996     0.388827  Biso 1.000000     C
    C   1.0     0.053604     0.053654     0.446221  Biso 1.000000     C
    C   1.0     0.389108     0.389074     0.111278  Biso 1.000000     C
    C   1.0     0.446403     0.446380     0.053781  Biso 1.000000     C
    C   1.0     0.111253     0.389065     0.389062  Biso 1.000000     C
    C   1.0     0.053778     0.446380     0.446378  Biso 1.000000     C
    C   1.0     0.388806     0.110994     0.110997  Biso 1.000000     C
    C   1.0     0.446217     0.053652     0.053648  Biso 1.000000     C
    C   1.0     0.611182     0.889003     0.888995  Biso 1.000000     C
    C   1.0     0.553771     0.946341     0.946346  Biso 1.000000     C
    C   1.0     0.888737     0.610931     0.610930  Biso 1.000000     C
    C   1.0     0.946207     0.553616     0.553614  Biso 1.000000     C
    C   1.0     0.889081     0.889002     0.611165  Biso 1.000000     C
    C   1.0     0.946384     0.946343     0.553771  Biso 1.000000     C
    C   1.0     0.610881     0.610923     0.888719  Biso 1.000000     C
    C   1.0     0.553585     0.553617     0.946201  Biso 1.000000     C
    C   1.0     0.610881     0.888719     0.610920  Biso 1.000000     C
    C   1.0     0.553586     0.946200     0.553616  Biso 1.000000     C
    C   1.0     0.889081     0.611165     0.888999  Biso 1.000000     C
    C   1.0     0.946375     0.553770     0.946347  Biso 1.000000     C
    O   1.0     0.249971     0.249970     0.249969  Biso 1.000000     O
    O   1.0     0.750017     0.750027     0.750023  Biso 1.000000     O
    O   1.0     0.133257     0.428402     0.133208  Biso 1.000000     O
    O   1.0     0.428712     0.133549     0.305321  Biso 1.000000     O
    O   1.0     0.132730     0.305067     0.132993  Biso 1.000000     O
    O   1.0     0.305304     0.133391     0.428638  Biso 1.000000     O
    O   1.0     0.132724     0.133005     0.305060  Biso 1.000000     O
    O   1.0     0.428711     0.305325     0.133540  Biso 1.000000     O
    O   1.0     0.133261     0.133206     0.428399  Biso 1.000000     O
    O   1.0     0.305305     0.428638     0.133391  Biso 1.000000     O
    O   1.0     0.133438     0.305322     0.428610  Biso 1.000000     O
    O   1.0     0.428420     0.133257     0.133257  Biso 1.000000     O
    O   1.0     0.133439     0.428612     0.305318  Biso 1.000000     O
    O   1.0     0.304991     0.132937     0.132932  Biso 1.000000     O
    O   1.0     0.571568     0.866739     0.866736  Biso 1.000000     O
    O   1.0     0.866549     0.571384     0.694674  Biso 1.000000     O
    O   1.0     0.694998     0.867058     0.867061  Biso 1.000000     O
    O   1.0     0.866549     0.694674     0.571382  Biso 1.000000     O
    O   1.0     0.867263     0.866992     0.694931  Biso 1.000000     O
    O   1.0     0.694683     0.571359     0.866600  Biso 1.000000     O
    O   1.0     0.866728     0.866790     0.571593  Biso 1.000000     O
    O   1.0     0.571277     0.694672     0.866451  Biso 1.000000     O
    O   1.0     0.694685     0.866608     0.571354  Biso 1.000000     O
    O   1.0     0.866729     0.571594     0.866785  Biso 1.000000     O
    O   1.0     0.571277     0.866448     0.694671  Biso 1.000000     O
    O   1.0     0.867258     0.694930     0.866999  Biso 1.000000     O
   Zn   1.0     0.206718     0.380367     0.206699  Biso 1.000000    Zn
   Zn   1.0     0.380464     0.206745     0.206742  Biso 1.000000    Zn
   Zn   1.0     0.206151     0.206353     0.206343  Biso 1.000000    Zn
   Zn   1.0     0.206719     0.206701     0.380369  Biso 1.000000    Zn
   Zn   1.0     0.619525     0.793252     0.793249  Biso 1.000000    Zn
   Zn   1.0     0.793271     0.619629     0.793292  Biso 1.000000    Zn
   Zn   1.0     0.793838     0.793643     0.793648  Biso 1.000000    Zn
   Zn   1.0     0.793270     0.793295     0.619623  Biso 1.000000    Zn
