#======================================================================

# CRYSTAL DATA

#----------------------------------------------------------------------

data_VESTA_phase_1


_pd_phase_name                         MOF
_cell_length_a                         12.09000
_cell_length_b                         31.26700
_cell_length_c                         14.04100
_cell_angle_alpha                      90.03200
_cell_angle_beta                       90.00300
_cell_angle_gamma                      90.64800
_symmetry_space_group_name_H-M         "P 1"
_symmetry_Int_Tables_number            1

loop_
_symmetry_equiv_pos_as_xyz
   "x, y, z"

loop_
   _atom_site_label
   _atom_site_occupancy
   _atom_site_fract_x
   _atom_site_fract_y
   _atom_site_fract_z
   _atom_site_adp_type
   _atom_site_B_iso_or_equiv
   _atom_site_type_symbol
    H   1.0     0.076260     0.160490     0.699176  Biso 1.000000     H
    H   1.0     0.076264     0.660491     0.699179  Biso 1.000000     H
    H   1.0     0.576250     0.160490     0.699177  Biso 1.000000     H
    H   1.0     0.576254     0.660492     0.699180  Biso 1.000000     H
    H   1.0     0.088444     0.095535     0.816656  Biso 1.000000     H
    H   1.0     0.088446     0.595537     0.816658  Biso 1.000000     H
    H   1.0     0.588430     0.095535     0.816659  Biso 1.000000     H
    H   1.0     0.588433     0.595536     0.816662  Biso 1.000000     H
    H   1.0     0.173912     0.088882     0.200775  Biso 1.000000     H
    H   1.0     0.173915     0.588884     0.200772  Biso 1.000000     H
    H   1.0     0.673888     0.088882     0.200775  Biso 1.000000     H
    H   1.0     0.673891     0.588884     0.200771  Biso 1.000000     H
    H   1.0     0.161576     0.154178     0.317477  Biso 1.000000     H
    H   1.0     0.161579     0.654180     0.317473  Biso 1.000000     H
    H   1.0     0.661551     0.154177     0.317476  Biso 1.000000     H
    H   1.0     0.661554     0.654180     0.317472  Biso 1.000000     H
    H   1.0     0.423693     0.339509     0.300837  Biso 1.000000     H
    H   1.0     0.423696     0.839511     0.300840  Biso 1.000000     H
    H   1.0     0.923683     0.339510     0.300838  Biso 1.000000     H
    H   1.0     0.923685     0.839512     0.300842  Biso 1.000000     H
    H   1.0     0.411512     0.404464     0.183356  Biso 1.000000     H
    H   1.0     0.411515     0.904466     0.183358  Biso 1.000000     H
    H   1.0     0.911499     0.404464     0.183358  Biso 1.000000     H
    H   1.0     0.911502     0.904466     0.183362  Biso 1.000000     H
    H   1.0     0.326054     0.411117     0.799238  Biso 1.000000     H
    H   1.0     0.326056     0.911119     0.799232  Biso 1.000000     H
    H   1.0     0.826030     0.411117     0.799236  Biso 1.000000     H
    H   1.0     0.826032     0.911119     0.799231  Biso 1.000000     H
    H   1.0     0.338391     0.345821     0.682536  Biso 1.000000     H
    H   1.0     0.338394     0.845824     0.682530  Biso 1.000000     H
    H   1.0     0.838366     0.345821     0.682535  Biso 1.000000     H
    H   1.0     0.838368     0.845824     0.682529  Biso 1.000000     H
    C   1.0     0.385752     0.051469     0.867504  Biso 1.000000     C
    C   1.0     0.385755     0.551470     0.867505  Biso 1.000000     C
    C   1.0     0.885733     0.051470     0.867504  Biso 1.000000     C
    C   1.0     0.885736     0.551471     0.867504  Biso 1.000000     C
    C   1.0     0.409882     0.087665     0.803376  Biso 1.000000     C
    C   1.0     0.409885     0.587666     0.803376  Biso 1.000000     C
    C   1.0     0.909864     0.087666     0.803375  Biso 1.000000     C
    C   1.0     0.909867     0.587667     0.803375  Biso 1.000000     C
    C   1.0     0.011914     0.106713     0.785222  Biso 1.000000     C
    C   1.0     0.011917     0.606714     0.785223  Biso 1.000000     C
    C   1.0     0.511902     0.106713     0.785223  Biso 1.000000     C
    C   1.0     0.511905     0.606714     0.785224  Biso 1.000000     C
    C   1.0     0.505179     0.141316     0.721363  Biso 1.000000     C
    C   1.0     0.505182     0.641318     0.721366  Biso 1.000000     C
    C   1.0     0.000000     0.141316     0.721363  Biso 1.000000     C
    C   1.0     0.000000     0.641317     0.721364  Biso 1.000000     C
    C   1.0     0.397969     0.148124     0.689856  Biso 1.000000     C
    C   1.0     0.397973     0.648125     0.689856  Biso 1.000000     C
    C   1.0     0.897951     0.148124     0.689857  Biso 1.000000     C
    C   1.0     0.897955     0.648125     0.689857  Biso 1.000000     C
    C   1.0     0.356182     0.180822     0.622669  Biso 1.000000     C
    C   1.0     0.356185     0.680823     0.622668  Biso 1.000000     C
    C   1.0     0.856163     0.180822     0.622670  Biso 1.000000     C
    C   1.0     0.856166     0.680823     0.622671  Biso 1.000000     C
    C   1.0     0.364201     0.198531     0.367621  Biso 1.000000     C
    C   1.0     0.364205     0.698532     0.367621  Biso 1.000000     C
    C   1.0     0.864178     0.198532     0.367621  Biso 1.000000     C
    C   1.0     0.864181     0.698532     0.367622  Biso 1.000000     C
    C   1.0     0.340108     0.162075     0.304138  Biso 1.000000     C
    C   1.0     0.340111     0.662076     0.304138  Biso 1.000000     C
    C   1.0     0.840084     0.162075     0.304138  Biso 1.000000     C
    C   1.0     0.840087     0.662076     0.304137  Biso 1.000000     C
    C   1.0     0.238139     0.142936     0.286207  Biso 1.000000     C
    C   1.0     0.238142     0.642938     0.286204  Biso 1.000000     C
    C   1.0     0.738115     0.142936     0.286207  Biso 1.000000     C
    C   1.0     0.738118     0.642938     0.286203  Biso 1.000000     C
    C   1.0     0.244927     0.108155     0.222741  Biso 1.000000     C
    C   1.0     0.244929     0.608157     0.222738  Biso 1.000000     C
    C   1.0     0.744903     0.108155     0.222740  Biso 1.000000     C
    C   1.0     0.744906     0.608157     0.222738  Biso 1.000000     C
    C   1.0     0.352171     0.101281     0.191394  Biso 1.000000     C
    C   1.0     0.352175     0.601282     0.191394  Biso 1.000000     C
    C   1.0     0.852148     0.101281     0.191393  Biso 1.000000     C
    C   1.0     0.852152     0.601282     0.191393  Biso 1.000000     C
    C   1.0     0.393971     0.068508     0.124334  Biso 1.000000     C
    C   1.0     0.393975     0.568509     0.124334  Biso 1.000000     C
    C   1.0     0.893950     0.068509     0.124334  Biso 1.000000     C
    C   1.0     0.893954     0.568510     0.124334  Biso 1.000000     C
    C   1.0     0.114211     0.448530     0.132509  Biso 1.000000     C
    C   1.0     0.114214     0.948531     0.132508  Biso 1.000000     C
    C   1.0     0.614192     0.448531     0.132508  Biso 1.000000     C
    C   1.0     0.614195     0.948532     0.132509  Biso 1.000000     C
    C   1.0     0.090079     0.412333     0.196637  Biso 1.000000     C
    C   1.0     0.090083     0.912335     0.196637  Biso 1.000000     C
    C   1.0     0.590061     0.412334     0.196637  Biso 1.000000     C
    C   1.0     0.590064     0.912335     0.196636  Biso 1.000000     C
    C   1.0     0.488042     0.393287     0.214790  Biso 1.000000     C
    C   1.0     0.488045     0.893288     0.214792  Biso 1.000000     C
    C   1.0     0.988029     0.393287     0.214792  Biso 1.000000     C
    C   1.0     0.988033     0.893288     0.214795  Biso 1.000000     C
    C   1.0    -0.005217     0.358683     0.278650  Biso 1.000000     C
    C   1.0    -0.005214     0.858685     0.278652  Biso 1.000000     C
    C   1.0     0.494764     0.358683     0.278650  Biso 1.000000     C
    C   1.0     0.494768     0.858684     0.278653  Biso 1.000000     C
    C   1.0     0.101993     0.351876     0.310157  Biso 1.000000     C
    C   1.0     0.101997     0.851877     0.310157  Biso 1.000000     C
    C   1.0     0.601974     0.351876     0.310157  Biso 1.000000     C
    C   1.0     0.601978     0.851877     0.310158  Biso 1.000000     C
    C   1.0     0.143782     0.319177     0.377343  Biso 1.000000     C
    C   1.0     0.143785     0.819178     0.377344  Biso 1.000000     C
    C   1.0     0.643763     0.319178     0.377344  Biso 1.000000     C
    C   1.0     0.643766     0.819178     0.377344  Biso 1.000000     C
    C   1.0     0.135767     0.301468     0.632389  Biso 1.000000     C
    C   1.0     0.135770     0.801470     0.632389  Biso 1.000000     C
    C   1.0     0.635744     0.301469     0.632389  Biso 1.000000     C
    C   1.0     0.635747     0.801470     0.632388  Biso 1.000000     C
    C   1.0     0.159859     0.337924     0.695875  Biso 1.000000     C
    C   1.0     0.159862     0.837925     0.695874  Biso 1.000000     C
    C   1.0     0.659835     0.337924     0.695875  Biso 1.000000     C
    C   1.0     0.659838     0.837925     0.695875  Biso 1.000000     C
    C   1.0     0.261828     0.357063     0.713807  Biso 1.000000     C
    C   1.0     0.261831     0.857065     0.713803  Biso 1.000000     C
    C   1.0     0.761804     0.357063     0.713807  Biso 1.000000     C
    C   1.0     0.761806     0.857065     0.713803  Biso 1.000000     C
    C   1.0     0.255039     0.391844     0.777273  Biso 1.000000     C
    C   1.0     0.255042     0.891846     0.777270  Biso 1.000000     C
    C   1.0     0.755016     0.391843     0.777273  Biso 1.000000     C
    C   1.0     0.755018     0.891846     0.777268  Biso 1.000000     C
    C   1.0     0.147794     0.398718     0.808619  Biso 1.000000     C
    C   1.0     0.147797     0.898719     0.808619  Biso 1.000000     C
    C   1.0     0.647771     0.398718     0.808618  Biso 1.000000     C
    C   1.0     0.647774     0.898719     0.808618  Biso 1.000000     C
    C   1.0     0.105993     0.431491     0.875676  Biso 1.000000     C
    C   1.0     0.105996     0.931493     0.875675  Biso 1.000000     C
    C   1.0     0.605973     0.431492     0.875675  Biso 1.000000     C
    C   1.0     0.605976     0.931493     0.875676  Biso 1.000000     C
    O   1.0     0.285567     0.040720     0.883964  Biso 1.000000     O
    O   1.0     0.285570     0.540722     0.883964  Biso 1.000000     O
    O   1.0     0.785548     0.040721     0.883965  Biso 1.000000     O
    O   1.0     0.785551     0.540722     0.883965  Biso 1.000000     O
    O   1.0     0.467894     0.031560     0.904093  Biso 1.000000     O
    O   1.0     0.467898     0.531562     0.904094  Biso 1.000000     O
    O   1.0     0.967872     0.031560     0.904094  Biso 1.000000     O
    O   1.0     0.967875     0.531562     0.904095  Biso 1.000000     O
    O   1.0     0.252825     0.180213     0.605281  Biso 1.000000     O
    O   1.0     0.252828     0.680213     0.605281  Biso 1.000000     O
    O   1.0     0.752805     0.180212     0.605284  Biso 1.000000     O
    O   1.0     0.752809     0.680211     0.605284  Biso 1.000000     O
    O   1.0     0.426322     0.207380     0.587105  Biso 1.000000     O
    O   1.0     0.426325     0.707381     0.587105  Biso 1.000000     O
    O   1.0     0.926302     0.207381     0.587105  Biso 1.000000     O
    O   1.0     0.926305     0.707382     0.587105  Biso 1.000000     O
    O   1.0     0.464401     0.209317     0.383942  Biso 1.000000     O
    O   1.0     0.464404     0.709318     0.383942  Biso 1.000000     O
    O   1.0     0.964378     0.209317     0.383942  Biso 1.000000     O
    O   1.0     0.964381     0.709318     0.383942  Biso 1.000000     O
    O   1.0     0.282088     0.218631     0.403770  Biso 1.000000     O
    O   1.0     0.282091     0.718632     0.403769  Biso 1.000000     O
    O   1.0     0.782065     0.218631     0.403770  Biso 1.000000     O
    O   1.0     0.782069     0.718633     0.403769  Biso 1.000000     O
    O   1.0    -0.002380     0.068559     0.108340  Biso 1.000000     O
    O   1.0    -0.002377     0.568560     0.108339  Biso 1.000000     O
    O   1.0     0.497610     0.068558     0.108337  Biso 1.000000     O
    O   1.0     0.497613     0.568560     0.108337  Biso 1.000000     O
    O   1.0     0.323517     0.042485     0.087273  Biso 1.000000     O
    O   1.0     0.323520     0.542487     0.087271  Biso 1.000000     O
    O   1.0     0.823499     0.042485     0.087274  Biso 1.000000     O
    O   1.0     0.823503     0.542487     0.087273  Biso 1.000000     O
    O   1.0     0.214395     0.459279     0.116048  Biso 1.000000     O
    O   1.0     0.214399     0.959281     0.116049  Biso 1.000000     O
    O   1.0     0.714376     0.459280     0.116049  Biso 1.000000     O
    O   1.0     0.714380     0.959282     0.116049  Biso 1.000000     O
    O   1.0     0.032073     0.468440     0.095916  Biso 1.000000     O
    O   1.0     0.032076     0.968442     0.095917  Biso 1.000000     O
    O   1.0     0.532051     0.468440     0.095918  Biso 1.000000     O
    O   1.0     0.532055     0.968442     0.095919  Biso 1.000000     O
    O   1.0     0.247140     0.319787     0.394728  Biso 1.000000     O
    O   1.0     0.247143     0.819787     0.394727  Biso 1.000000     O
    O   1.0     0.747120     0.319787     0.394732  Biso 1.000000     O
    O   1.0     0.747124     0.819786     0.394731  Biso 1.000000     O
    O   1.0     0.073643     0.292619     0.412909  Biso 1.000000     O
    O   1.0     0.073646     0.792620     0.412909  Biso 1.000000     O
    O   1.0     0.573623     0.292620     0.412908  Biso 1.000000     O
    O   1.0     0.573625     0.792621     0.412909  Biso 1.000000     O
    O   1.0     0.035567     0.290684     0.616066  Biso 1.000000     O
    O   1.0     0.035571     0.790685     0.616066  Biso 1.000000     O
    O   1.0     0.535544     0.290684     0.616067  Biso 1.000000     O
    O   1.0     0.535547     0.790685     0.616066  Biso 1.000000     O
    O   1.0     0.217881     0.281370     0.596240  Biso 1.000000     O
    O   1.0     0.217884     0.781371     0.596240  Biso 1.000000     O
    O   1.0     0.717858     0.281371     0.596240  Biso 1.000000     O
    O   1.0     0.717862     0.781372     0.596240  Biso 1.000000     O
    O   1.0     0.502334     0.431443     0.891672  Biso 1.000000     O
    O   1.0     0.502337     0.931445     0.891671  Biso 1.000000     O
    O   1.0     0.000000     0.431442     0.891669  Biso 1.000000     O
    O   1.0     0.000000     0.931444     0.891669  Biso 1.000000     O
    O   1.0     0.176447     0.457515     0.912735  Biso 1.000000     O
    O   1.0     0.176450     0.957517     0.912734  Biso 1.000000     O
    O   1.0     0.676429     0.457515     0.912736  Biso 1.000000     O
    O   1.0     0.676432     0.957517     0.912735  Biso 1.000000     O
    S   1.0     0.305884     0.111968     0.739849  Biso 1.000000     S
    S   1.0     0.305887     0.611969     0.739848  Biso 1.000000     S
    S   1.0     0.805864     0.111969     0.739851  Biso 1.000000     S
    S   1.0     0.805868     0.611969     0.739849  Biso 1.000000     S
    S   1.0     0.444205     0.137561     0.241091  Biso 1.000000     S
    S   1.0     0.444208     0.637562     0.241092  Biso 1.000000     S
    S   1.0     0.944181     0.137561     0.241092  Biso 1.000000     S
    S   1.0     0.944184     0.637562     0.241092  Biso 1.000000     S
    S   1.0     0.194079     0.388030     0.260162  Biso 1.000000     S
    S   1.0     0.194083     0.888031     0.260161  Biso 1.000000     S
    S   1.0     0.694059     0.388031     0.260163  Biso 1.000000     S
    S   1.0     0.694063     0.888031     0.260163  Biso 1.000000     S
    S   1.0     0.055762     0.362437     0.758921  Biso 1.000000     S
    S   1.0     0.055766     0.862438     0.758923  Biso 1.000000     S
    S   1.0     0.555738     0.362437     0.758923  Biso 1.000000     S
    S   1.0     0.555741     0.862438     0.758923  Biso 1.000000     S
   Sr   1.0     0.366646     0.469369     0.991546  Biso 1.000000    Sr
   Sr   1.0     0.366648     0.969372     0.991545  Biso 1.000000    Sr
   Sr   1.0     0.866632     0.469367     0.991545  Biso 1.000000    Sr
   Sr   1.0     0.866635     0.969370     0.991544  Biso 1.000000    Sr
   Sr   1.0     0.383298     0.280713     0.491833  Biso 1.000000    Sr
   Sr   1.0     0.383302     0.780714     0.491833  Biso 1.000000    Sr
   Sr   1.0     0.883281     0.280713     0.491834  Biso 1.000000    Sr
   Sr   1.0     0.883285     0.780713     0.491834  Biso 1.000000    Sr
   Sr   1.0     0.133312     0.030630     0.008468  Biso 1.000000    Sr
   Sr   1.0     0.133314     0.530633     0.008467  Biso 1.000000    Sr
   Sr   1.0     0.633299     0.030628     0.008467  Biso 1.000000    Sr
   Sr   1.0     0.633302     0.530630     0.008466  Biso 1.000000    Sr
   Sr   1.0     0.116663     0.219286     0.508178  Biso 1.000000    Sr
   Sr   1.0     0.116667     0.719286     0.508178  Biso 1.000000    Sr
   Sr   1.0     0.616647     0.219286     0.508179  Biso 1.000000    Sr
   Sr   1.0     0.616651     0.719286     0.508179  Biso 1.000000    Sr
