#======================================================================

# CRYSTAL DATA

#----------------------------------------------------------------------

data_VESTA_phase_1


_pd_phase_name                         MOF
_cell_length_a                         21.93300
_cell_length_b                         21.94700
_cell_length_c                         15.97800
_cell_angle_alpha                      89.99600
_cell_angle_beta                       90.00000
_cell_angle_gamma                      89.96200
_symmetry_space_group_name_H-M         "P 1"
_symmetry_Int_Tables_number            1

loop_
_symmetry_equiv_pos_as_xyz
   "x, y, z"

loop_
   _atom_site_label
   _atom_site_occupancy
   _atom_site_fract_x
   _atom_site_fract_y
   _atom_site_fract_z
   _atom_site_adp_type
   _atom_site_B_iso_or_equiv
   _atom_site_type_symbol
    C   1.0     0.080107     0.022735     0.253879  Biso 1.000000     C
    C   1.0     0.080063     0.522942     0.253964  Biso 1.000000     C
    C   1.0     0.580208     0.022825     0.253823  Biso 1.000000     C
    C   1.0     0.580191     0.522985     0.253908  Biso 1.000000     C
    C   1.0     0.055924     0.064488     0.311783  Biso 1.000000     C
    C   1.0     0.055923     0.564722     0.311879  Biso 1.000000     C
    C   1.0     0.556104     0.064585     0.311789  Biso 1.000000     C
    C   1.0     0.556138     0.564770     0.311888  Biso 1.000000     C
    C   1.0     0.080741     0.081797     0.390826  Biso 1.000000     C
    C   1.0     0.080776     0.582083     0.390898  Biso 1.000000     C
    C   1.0     0.581011     0.081933     0.390780  Biso 1.000000     C
    C   1.0     0.581065     0.582125     0.390881  Biso 1.000000     C
    C   1.0     0.053526     0.015361     0.174554  Biso 1.000000     C
    C   1.0     0.053452     0.515509     0.174651  Biso 1.000000     C
    C   1.0     0.553528     0.015409     0.174552  Biso 1.000000     C
    C   1.0     0.553487     0.515543     0.174642  Biso 1.000000     C
    C   1.0     0.133453     0.488094     0.266467  Biso 1.000000     C
    C   1.0     0.133508     0.987909     0.266396  Biso 1.000000     C
    C   1.0     0.633592     0.488134     0.266305  Biso 1.000000     C
    C   1.0     0.633618     0.987991     0.266233  Biso 1.000000     C
    C   1.0    -0.000300     0.092731     0.288710  Biso 1.000000     C
    C   1.0    -0.000348     0.592901     0.288862  Biso 1.000000     C
    C   1.0     0.499819     0.092777     0.288858  Biso 1.000000     C
    C   1.0     0.499857     0.592975     0.288975  Biso 1.000000     C
    C   1.0     0.383926     0.056473     0.073683  Biso 1.000000     C
    C   1.0     0.383958     0.556722     0.073623  Biso 1.000000     C
    C   1.0     0.883929     0.056432     0.073618  Biso 1.000000     C
    C   1.0     0.883966     0.556620     0.073591  Biso 1.000000     C
    C   1.0     0.053853     0.119178     0.934369  Biso 1.000000     C
    C   1.0     0.053988     0.619149     0.934303  Biso 1.000000     C
    C   1.0     0.554077     0.119120     0.934398  Biso 1.000000     C
    C   1.0     0.554236     0.619083     0.934344  Biso 1.000000     C
    C   1.0     0.169973     0.477102     0.753995  Biso 1.000000     C
    C   1.0     0.169890     0.977273     0.753930  Biso 1.000000     C
    C   1.0     0.669881     0.477008     0.753843  Biso 1.000000     C
    C   1.0     0.669912     0.977191     0.753750  Biso 1.000000     C
    C   1.0     0.194092     0.435315     0.811926  Biso 1.000000     C
    C   1.0     0.194079     0.935529     0.811855  Biso 1.000000     C
    C   1.0     0.693996     0.435272     0.811853  Biso 1.000000     C
    C   1.0     0.694056     0.935467     0.811744  Biso 1.000000     C
    C   1.0     0.169214     0.417963     0.890942  Biso 1.000000     C
    C   1.0     0.169248     0.918202     0.890890  Biso 1.000000     C
    C   1.0     0.669141     0.417920     0.890888  Biso 1.000000     C
    C   1.0     0.669208     0.918144     0.890785  Biso 1.000000     C
    C   1.0     0.196546     0.484506     0.674651  Biso 1.000000     C
    C   1.0     0.196445     0.984629     0.674582  Biso 1.000000     C
    C   1.0     0.696576     0.484417     0.674562  Biso 1.000000     C
    C   1.0     0.696574     0.984581     0.674459  Biso 1.000000     C
    C   1.0     0.116492     0.012108     0.766427  Biso 1.000000     C
    C   1.0     0.116604     0.511981     0.766498  Biso 1.000000     C
    C   1.0     0.616510     0.012029     0.766195  Biso 1.000000     C
    C   1.0     0.616482     0.511855     0.766258  Biso 1.000000     C
    C   1.0     0.250340     0.407085     0.788930  Biso 1.000000     C
    C   1.0     0.250316     0.907299     0.788815  Biso 1.000000     C
    C   1.0     0.750289     0.407106     0.788916  Biso 1.000000     C
    C   1.0     0.750328     0.907265     0.788792  Biso 1.000000     C
    C   1.0     0.365945     0.443305     0.573675  Biso 1.000000     C
    C   1.0     0.365962     0.943449     0.573738  Biso 1.000000     C
    C   1.0     0.866233     0.443279     0.573613  Biso 1.000000     C
    C   1.0     0.866249     0.943559     0.573672  Biso 1.000000     C
    C   1.0     0.195964     0.380917     0.434301  Biso 1.000000     C
    C   1.0     0.196035     0.880825     0.434404  Biso 1.000000     C
    C   1.0     0.695984     0.380880     0.434295  Biso 1.000000     C
    C   1.0     0.696141     0.880908     0.434345  Biso 1.000000     C
    C   1.0     0.420003     0.272937     0.245447  Biso 1.000000     C
    C   1.0     0.420088     0.773028     0.245468  Biso 1.000000     C
    C   1.0     0.920100     0.272884     0.245457  Biso 1.000000     C
    C   1.0     0.920095     0.773027     0.245473  Biso 1.000000     C
    C   1.0     0.444012     0.314640     0.187357  Biso 1.000000     C
    C   1.0     0.444143     0.814660     0.187326  Biso 1.000000     C
    C   1.0     0.944182     0.314581     0.187419  Biso 1.000000     C
    C   1.0     0.944261     0.814635     0.187393  Biso 1.000000     C
    C   1.0     0.419023     0.331958     0.108350  Biso 1.000000     C
    C   1.0     0.419160     0.831959     0.108316  Biso 1.000000     C
    C   1.0     0.919286     0.331901     0.108370  Biso 1.000000     C
    C   1.0     0.919397     0.831912     0.108319  Biso 1.000000     C
    C   1.0     0.446686     0.265606     0.324764  Biso 1.000000     C
    C   1.0     0.446746     0.765762     0.324806  Biso 1.000000     C
    C   1.0     0.946739     0.265553     0.324794  Biso 1.000000     C
    C   1.0     0.946682     0.765761     0.324843  Biso 1.000000     C
    C   1.0     0.366663     0.238053     0.233098  Biso 1.000000     C
    C   1.0     0.366733     0.738174     0.233109  Biso 1.000000     C
    C   1.0     0.866764     0.238013     0.233019  Biso 1.000000     C
    C   1.0     0.866729     0.738206     0.233036  Biso 1.000000     C
    C   1.0     0.500312     0.342801     0.210106  Biso 1.000000     C
    C   1.0     0.500472     0.842781     0.210021  Biso 1.000000     C
    C   1.0     0.000000     0.342737     0.210291  Biso 1.000000     C
    C   1.0     0.000000     0.842759     0.210246  Biso 1.000000     C
    C   1.0     0.116204     0.306489     0.426134  Biso 1.000000     C
    C   1.0     0.116165     0.806576     0.426133  Biso 1.000000     C
    C   1.0     0.616075     0.306573     0.426103  Biso 1.000000     C
    C   1.0     0.616184     0.806700     0.426127  Biso 1.000000     C
    C   1.0     0.445861     0.368906     0.565530  Biso 1.000000     C
    C   1.0     0.445939     0.869155     0.565535  Biso 1.000000     C
    C   1.0     0.946184     0.368961     0.565499  Biso 1.000000     C
    C   1.0     0.946171     0.869259     0.565543  Biso 1.000000     C
    C   1.0     0.329939     0.226898     0.745497  Biso 1.000000     C
    C   1.0     0.330010     0.727037     0.745524  Biso 1.000000     C
    C   1.0     0.829955     0.227037     0.745377  Biso 1.000000     C
    C   1.0     0.829961     0.727110     0.745357  Biso 1.000000     C
    C   1.0     0.305840     0.185286     0.687371  Biso 1.000000     C
    C   1.0     0.305972     0.685360     0.687431  Biso 1.000000     C
    C   1.0     0.805874     0.185393     0.687286  Biso 1.000000     C
    C   1.0     0.805926     0.685371     0.687351  Biso 1.000000     C
    C   1.0     0.330768     0.167992     0.608331  Biso 1.000000     C
    C   1.0     0.330920     0.668040     0.608408  Biso 1.000000     C
    C   1.0     0.830852     0.168092     0.608290  Biso 1.000000     C
    C   1.0     0.830890     0.668055     0.608345  Biso 1.000000     C
    C   1.0     0.303266     0.234184     0.824821  Biso 1.000000     C
    C   1.0     0.303288     0.734395     0.824811  Biso 1.000000     C
    C   1.0     0.803339     0.234311     0.824727  Biso 1.000000     C
    C   1.0     0.803348     0.734448     0.824703  Biso 1.000000     C
    C   1.0     0.383323     0.261707     0.733124  Biso 1.000000     C
    C   1.0     0.383382     0.761870     0.733171  Biso 1.000000     C
    C   1.0     0.883324     0.261861     0.732975  Biso 1.000000     C
    C   1.0     0.883288     0.761994     0.732910  Biso 1.000000     C
    C   1.0     0.249518     0.157178     0.710129  Biso 1.000000     C
    C   1.0     0.249661     0.657234     0.710212  Biso 1.000000     C
    C   1.0     0.749565     0.157257     0.710033  Biso 1.000000     C
    C   1.0     0.749671     0.657166     0.710199  Biso 1.000000     C
    C   1.0     0.133741     0.193409     0.926147  Biso 1.000000     C
    C   1.0     0.133799     0.693523     0.926153  Biso 1.000000     C
    C   1.0     0.633987     0.193385     0.926126  Biso 1.000000     C
    C   1.0     0.634065     0.693492     0.926136  Biso 1.000000     C
    C   1.0     0.303906     0.130714     0.065515  Biso 1.000000     C
    C   1.0     0.303954     0.631012     0.065511  Biso 1.000000     C
    C   1.0     0.804017     0.130759     0.065436  Biso 1.000000     C
    C   1.0     0.804074     0.631013     0.065441  Biso 1.000000     C
    C   1.0     0.419875     0.477021     0.745627  Biso 1.000000     C
    C   1.0     0.419851     0.977192     0.745641  Biso 1.000000     C
    C   1.0     0.920010     0.477036     0.745581  Biso 1.000000     C
    C   1.0     0.919948     0.977253     0.745640  Biso 1.000000     C
    C   1.0     0.443927     0.435223     0.687662  Biso 1.000000     C
    C   1.0     0.443959     0.935428     0.687685  Biso 1.000000     C
    C   1.0     0.944148     0.435260     0.687657  Biso 1.000000     C
    C   1.0     0.944130     0.935507     0.687725  Biso 1.000000     C
    C   1.0     0.419002     0.417867     0.608671  Biso 1.000000     C
    C   1.0     0.419052     0.918075     0.608696  Biso 1.000000     C
    C   1.0     0.919305     0.417907     0.608628  Biso 1.000000     C
    C   1.0     0.919314     0.918194     0.608681  Biso 1.000000     C
    C   1.0     0.446565     0.484467     0.824899  Biso 1.000000     C
    C   1.0     0.446523     0.984598     0.824916  Biso 1.000000     C
    C   1.0     0.946637     0.484468     0.824886  Biso 1.000000     C
    C   1.0     0.946550     0.984631     0.824953  Biso 1.000000     C
    C   1.0     0.366439     0.012021     0.733226  Biso 1.000000     C
    C   1.0     0.366484     0.511883     0.733210  Biso 1.000000     C
    C   1.0     0.866541     0.012070     0.733136  Biso 1.000000     C
    C   1.0     0.866622     0.511887     0.733084  Biso 1.000000     C
    C   1.0     0.500201     0.407011     0.710595  Biso 1.000000     C
    C   1.0     0.500240     0.907233     0.710629  Biso 1.000000     C
    C   1.0     0.000000     0.407081     0.710688  Biso 1.000000     C
    C   1.0     0.000000     0.907270     0.710792  Biso 1.000000     C
    C   1.0     0.116159     0.443380     0.925944  Biso 1.000000     C
    C   1.0     0.116178     0.943577     0.925869  Biso 1.000000     C
    C   1.0     0.616071     0.443294     0.925917  Biso 1.000000     C
    C   1.0     0.616123     0.943496     0.925781  Biso 1.000000     C
    C   1.0     0.445813     0.380920     0.065187  Biso 1.000000     C
    C   1.0     0.445984     0.880865     0.065096  Biso 1.000000     C
    C   1.0     0.946093     0.380853     0.065225  Biso 1.000000     C
    C   1.0     0.946223     0.880819     0.065133  Biso 1.000000     C
    C   1.0     0.330167     0.022782     0.245731  Biso 1.000000     C
    C   1.0     0.330183     0.522991     0.245689  Biso 1.000000     C
    C   1.0     0.830188     0.022739     0.245548  Biso 1.000000     C
    C   1.0     0.830114     0.522904     0.245539  Biso 1.000000     C
    C   1.0     0.306010     0.064500     0.187740  Biso 1.000000     C
    C   1.0     0.306053     0.564736     0.187703  Biso 1.000000     C
    C   1.0     0.806012     0.064483     0.187615  Biso 1.000000     C
    C   1.0     0.806013     0.564690     0.187593  Biso 1.000000     C
    C   1.0     0.330845     0.081824     0.108693  Biso 1.000000     C
    C   1.0     0.330889     0.582092     0.108659  Biso 1.000000     C
    C   1.0     0.830859     0.081814     0.108588  Biso 1.000000     C
    C   1.0     0.830906     0.582038     0.108581  Biso 1.000000     C
    C   1.0     0.303507     0.015396     0.325022  Biso 1.000000     C
    C   1.0     0.303506     0.515576     0.324978  Biso 1.000000     C
    C   1.0     0.803625     0.015389     0.324892  Biso 1.000000     C
    C   1.0     0.803522     0.515499     0.324873  Biso 1.000000     C
    C   1.0     0.383576     0.488139     0.233247  Biso 1.000000     C
    C   1.0     0.383580     0.987962     0.233287  Biso 1.000000     C
    C   1.0     0.883482     0.488020     0.233055  Biso 1.000000     C
    C   1.0     0.883581     0.987896     0.233061  Biso 1.000000     C
    C   1.0     0.249739     0.092698     0.210708  Biso 1.000000     C
    C   1.0     0.249771     0.592904     0.210688  Biso 1.000000     C
    C   1.0     0.749768     0.092711     0.210631  Biso 1.000000     C
    C   1.0     0.749759     0.592921     0.210558  Biso 1.000000     C
    C   1.0     0.133812     0.056434     0.425815  Biso 1.000000     C
    C   1.0     0.133851     0.556711     0.425901  Biso 1.000000     C
    C   1.0     0.634104     0.056563     0.425737  Biso 1.000000     C
    C   1.0     0.634123     0.556693     0.425879  Biso 1.000000     C
    C   1.0     0.303896     0.119109     0.565134  Biso 1.000000     C
    C   1.0     0.304064     0.619122     0.565245  Biso 1.000000     C
    C   1.0     0.804070     0.119170     0.565089  Biso 1.000000     C
    C   1.0     0.804150     0.619070     0.565208  Biso 1.000000     C
    C   1.0     0.079968     0.226992     0.754054  Biso 1.000000     C
    C   1.0     0.079964     0.727121     0.754075  Biso 1.000000     C
    C   1.0     0.579985     0.226966     0.754041  Biso 1.000000     C
    C   1.0     0.580076     0.727038     0.754054  Biso 1.000000     C
    C   1.0     0.055801     0.185371     0.812116  Biso 1.000000     C
    C   1.0     0.055879     0.685423     0.812108  Biso 1.000000     C
    C   1.0     0.555930     0.185334     0.812182  Biso 1.000000     C
    C   1.0     0.556058     0.685353     0.812161  Biso 1.000000     C
    C   1.0     0.080670     0.168088     0.891183  Biso 1.000000     C
    C   1.0     0.080777     0.668108     0.891155  Biso 1.000000     C
    C   1.0     0.580904     0.168035     0.891199  Biso 1.000000     C
    C   1.0     0.581040     0.668034     0.891172  Biso 1.000000     C
    C   1.0     0.053401     0.234263     0.674675  Biso 1.000000     C
    C   1.0     0.053341     0.734444     0.674727  Biso 1.000000     C
    C   1.0     0.553326     0.234229     0.674702  Biso 1.000000     C
    C   1.0     0.553377     0.734376     0.674747  Biso 1.000000     C
    C   1.0     0.133328     0.261819     0.766516  Biso 1.000000     C
    C   1.0     0.133297     0.761995     0.766519  Biso 1.000000     C
    C   1.0     0.633336     0.261827     0.766403  Biso 1.000000     C
    C   1.0     0.633438     0.761895     0.766366  Biso 1.000000     C
    C   1.0    -0.000483     0.157239     0.789248  Biso 1.000000     C
    C   1.0    -0.000390     0.657263     0.789229  Biso 1.000000     C
    C   1.0     0.499609     0.157203     0.789475  Biso 1.000000     C
    C   1.0     0.499748     0.657207     0.789420  Biso 1.000000     C
    C   1.0     0.383866     0.193295     0.573383  Biso 1.000000     C
    C   1.0     0.383968     0.693431     0.573412  Biso 1.000000     C
    C   1.0     0.883954     0.193411     0.573393  Biso 1.000000     C
    C   1.0     0.883906     0.693512     0.573372  Biso 1.000000     C
    C   1.0     0.053897     0.130730     0.433979  Biso 1.000000     C
    C   1.0     0.053914     0.631042     0.434015  Biso 1.000000     C
    C   1.0     0.554119     0.130846     0.433954  Biso 1.000000     C
    C   1.0     0.554198     0.631083     0.434020  Biso 1.000000     C
    C   1.0     0.170125     0.272872     0.254157  Biso 1.000000     C
    C   1.0     0.170112     0.772958     0.254133  Biso 1.000000     C
    C   1.0     0.670053     0.272977     0.253994  Biso 1.000000     C
    C   1.0     0.670119     0.773095     0.254003  Biso 1.000000     C
    C   1.0     0.194177     0.314608     0.312155  Biso 1.000000     C
    C   1.0     0.194212     0.814603     0.312206  Biso 1.000000     C
    C   1.0     0.694085     0.314647     0.312102  Biso 1.000000     C
    C   1.0     0.694203     0.814720     0.312124  Biso 1.000000     C
    C   1.0     0.169227     0.331931     0.391165  Biso 1.000000     C
    C   1.0     0.169258     0.831897     0.391216  Biso 1.000000     C
    C   1.0     0.669127     0.331965     0.391120  Biso 1.000000     C
    C   1.0     0.669272     0.832015     0.391162  Biso 1.000000     C
    C   1.0     0.196724     0.265532     0.174803  Biso 1.000000     C
    C   1.0     0.196706     0.765685     0.174772  Biso 1.000000     C
    C   1.0     0.696785     0.265627     0.174710  Biso 1.000000     C
    C   1.0     0.696800     0.765805     0.174683  Biso 1.000000     C
    C   1.0     0.116794     0.237995     0.266617  Biso 1.000000     C
    C   1.0     0.116744     0.738136     0.266559  Biso 1.000000     C
    C   1.0     0.616679     0.238145     0.266318  Biso 1.000000     C
    C   1.0     0.616748     0.738270     0.266386  Biso 1.000000     C
    C   1.0     0.250429     0.342806     0.289281  Biso 1.000000     C
    C   1.0     0.250511     0.842744     0.289423  Biso 1.000000     C
    C   1.0     0.750401     0.342770     0.289336  Biso 1.000000     C
    C   1.0     0.750514     0.842846     0.289354  Biso 1.000000     C
    C   1.0     0.366003     0.306488     0.073388  Biso 1.000000     C
    C   1.0     0.366067     0.806613     0.073415  Biso 1.000000     C
    C   1.0     0.866262     0.306495     0.073361  Biso 1.000000     C
    C   1.0     0.866325     0.806593     0.073354  Biso 1.000000     C
    C   1.0     0.196037     0.368978     0.934067  Biso 1.000000     C
    C   1.0     0.196086     0.869257     0.934046  Biso 1.000000     C
    C   1.0     0.696075     0.369000     0.934039  Biso 1.000000     C
    C   1.0     0.696147     0.869261     0.933984  Biso 1.000000     C
    N   1.0     0.035065     0.009360     0.106568  Biso 1.000000     N
    N   1.0     0.035031     0.509434     0.106650  Biso 1.000000     N
    N   1.0     0.535024     0.009342     0.106594  Biso 1.000000     N
    N   1.0     0.534997     0.509424     0.106683  Biso 1.000000     N
    N   1.0     0.177261     0.457870     0.271723  Biso 1.000000     N
    N   1.0     0.177343     0.957727     0.271659  Biso 1.000000     N
    N   1.0     0.677414     0.457925     0.271497  Biso 1.000000     N
    N   1.0     0.677444     0.957787     0.271417  Biso 1.000000     N
    N   1.0     0.452561     0.113588     0.270859  Biso 1.000000     N
    N   1.0     0.452599     0.613784     0.270974  Biso 1.000000     N
    N   1.0     0.952476     0.113595     0.270588  Biso 1.000000     N
    N   1.0     0.952380     0.613679     0.270788  Biso 1.000000     N
    N   1.0     0.427435     0.036280     0.041595  Biso 1.000000     N
    N   1.0     0.427447     0.536464     0.041551  Biso 1.000000     N
    N   1.0     0.927437     0.036202     0.041582  Biso 1.000000     N
    N   1.0     0.927444     0.536328     0.041536  Biso 1.000000     N
    N   1.0     0.030724     0.077393     0.966776  Biso 1.000000     N
    N   1.0     0.030853     0.577354     0.966684  Biso 1.000000     N
    N   1.0     0.530854     0.077360     0.966747  Biso 1.000000     N
    N   1.0     0.531000     0.577314     0.966662  Biso 1.000000     N
    N   1.0     0.214914     0.490605     0.606625  Biso 1.000000     N
    N   1.0     0.214852     0.990628     0.606566  Biso 1.000000     N
    N   1.0     0.715130     0.490496     0.606627  Biso 1.000000     N
    N   1.0     0.715121     0.990639     0.606520  Biso 1.000000     N
    N   1.0     0.072664     0.042304     0.771656  Biso 1.000000     N
    N   1.0     0.072810     0.542225     0.771748  Biso 1.000000     N
    N   1.0     0.572691     0.042235     0.771448  Biso 1.000000     N
    N   1.0     0.572668     0.542072     0.771490  Biso 1.000000     N
    N   1.0     0.297574     0.386241     0.770887  Biso 1.000000     N
    N   1.0     0.297538     0.886445     0.770732  Biso 1.000000     N
    N   1.0     0.797560     0.386339     0.770895  Biso 1.000000     N
    N   1.0     0.797577     0.886441     0.770783  Biso 1.000000     N
    N   1.0     0.322489     0.463638     0.541605  Biso 1.000000     N
    N   1.0     0.322464     0.963695     0.541678  Biso 1.000000     N
    N   1.0     0.822735     0.463528     0.541554  Biso 1.000000     N
    N   1.0     0.822750     0.963763     0.541577  Biso 1.000000     N
    N   1.0     0.219085     0.422731     0.466650  Biso 1.000000     N
    N   1.0     0.219171     0.922613     0.466787  Biso 1.000000     N
    N   1.0     0.719255     0.422619     0.466629  Biso 1.000000     N
    N   1.0     0.719395     0.922652     0.466685  Biso 1.000000     N
    N   1.0     0.465065     0.259513     0.392796  Biso 1.000000     N
    N   1.0     0.465140     0.759751     0.392843  Biso 1.000000     N
    N   1.0     0.965150     0.259484     0.392811  Biso 1.000000     N
    N   1.0     0.965076     0.759789     0.392881  Biso 1.000000     N
    N   1.0     0.322913     0.207797     0.227953  Biso 1.000000     N
    N   1.0     0.322967     0.707946     0.227903  Biso 1.000000     N
    N   1.0     0.823014     0.207763     0.227800  Biso 1.000000     N
    N   1.0     0.822954     0.707992     0.227817  Biso 1.000000     N
    N   1.0     0.047744     0.363477     0.228222  Biso 1.000000     N
    N   1.0     0.047848     0.863495     0.228151  Biso 1.000000     N
    N   1.0     0.547606     0.363551     0.227920  Biso 1.000000     N
    N   1.0     0.547787     0.863503     0.227783  Biso 1.000000     N
    N   1.0     0.072746     0.286140     0.458110  Biso 1.000000     N
    N   1.0     0.072644     0.786404     0.458152  Biso 1.000000     N
    N   1.0     0.572609     0.286265     0.458118  Biso 1.000000     N
    N   1.0     0.572680     0.786502     0.458170  Biso 1.000000     N
    N   1.0     0.469061     0.327150     0.533067  Biso 1.000000     N
    N   1.0     0.469157     0.827416     0.533068  Biso 1.000000     N
    N   1.0     0.969329     0.327195     0.532998  Biso 1.000000     N
    N   1.0     0.969299     0.827496     0.533022  Biso 1.000000     N
    N   1.0     0.284825     0.240178     0.892834  Biso 1.000000     N
    N   1.0     0.284836     0.740488     0.892804  Biso 1.000000     N
    N   1.0     0.785008     0.240309     0.892794  Biso 1.000000     N
    N   1.0     0.785043     0.740539     0.892769  Biso 1.000000     N
    N   1.0     0.427116     0.291894     0.727900  Biso 1.000000     N
    N   1.0     0.427162     0.792079     0.727988  Biso 1.000000     N
    N   1.0     0.927113     0.292054     0.727747  Biso 1.000000     N
    N   1.0     0.927040     0.792242     0.727688  Biso 1.000000     N
    N   1.0     0.202217     0.136458     0.727979  Biso 1.000000     N
    N   1.0     0.202364     0.636525     0.728101  Biso 1.000000     N
    N   1.0     0.702271     0.136514     0.727860  Biso 1.000000     N
    N   1.0     0.702419     0.636365     0.728111  Biso 1.000000     N
    N   1.0     0.177240     0.213603     0.958191  Biso 1.000000     N
    N   1.0     0.177255     0.713845     0.958161  Biso 1.000000     N
    N   1.0     0.677478     0.213620     0.958151  Biso 1.000000     N
    N   1.0     0.677496     0.713885     0.958132  Biso 1.000000     N
    N   1.0     0.280684     0.172445     0.033023  Biso 1.000000     N
    N   1.0     0.280737     0.672750     0.033022  Biso 1.000000     N
    N   1.0     0.780912     0.172555     0.032953  Biso 1.000000     N
    N   1.0     0.780966     0.672820     0.032978  Biso 1.000000     N
    N   1.0     0.465040     0.490592     0.892865  Biso 1.000000     N
    N   1.0     0.465028     0.990649     0.892874  Biso 1.000000     N
    N   1.0     0.965099     0.490563     0.892862  Biso 1.000000     N
    N   1.0     0.965035     0.990624     0.892929  Biso 1.000000     N
    N   1.0     0.322606     0.042215     0.728037  Biso 1.000000     N
    N   1.0     0.322671     0.542104     0.728002  Biso 1.000000     N
    N   1.0     0.822701     0.042246     0.727876  Biso 1.000000     N
    N   1.0     0.822814     0.542111     0.727830  Biso 1.000000     N
    N   1.0     0.047683     0.386310     0.728803  Biso 1.000000     N
    N   1.0     0.047588     0.886413     0.728912  Biso 1.000000     N
    N   1.0     0.547453     0.386194     0.728613  Biso 1.000000     N
    N   1.0     0.547494     0.886420     0.728644  Biso 1.000000     N
    N   1.0     0.072676     0.463658     0.958004  Biso 1.000000     N
    N   1.0     0.072664     0.963790     0.957908  Biso 1.000000     N
    N   1.0     0.572583     0.463550     0.957994  Biso 1.000000     N
    N   1.0     0.572617     0.963696     0.957870  Biso 1.000000     N
    N   1.0     0.469036     0.422701     0.032881  Biso 1.000000     N
    N   1.0     0.469202     0.922616     0.032716  Biso 1.000000     N
    N   1.0     0.969262     0.422631     0.032843  Biso 1.000000     N
    N   1.0     0.969374     0.922591     0.032724  Biso 1.000000     N
    N   1.0     0.284953     0.009357     0.392959  Biso 1.000000     N
    N   1.0     0.284963     0.509497     0.392918  Biso 1.000000     N
    N   1.0     0.785202     0.009374     0.392897  Biso 1.000000     N
    N   1.0     0.785142     0.509390     0.392890  Biso 1.000000     N
    N   1.0     0.427384     0.457914     0.228005  Biso 1.000000     N
    N   1.0     0.427415     0.957778     0.228034  Biso 1.000000     N
    N   1.0     0.927275     0.457774     0.227807  Biso 1.000000     N
    N   1.0     0.927405     0.957694     0.227834  Biso 1.000000     N
    N   1.0     0.202492     0.113519     0.228738  Biso 1.000000     N
    N   1.0     0.202510     0.613665     0.228777  Biso 1.000000     N
    N   1.0     0.702541     0.113563     0.228688  Biso 1.000000     N
    N   1.0     0.702520     0.613767     0.228574  Biso 1.000000     N
    N   1.0     0.177318     0.036229     0.457890  Biso 1.000000     N
    N   1.0     0.177341     0.536452     0.457966  Biso 1.000000     N
    N   1.0     0.677606     0.036330     0.457800  Biso 1.000000     N
    N   1.0     0.677578     0.536363     0.457960  Biso 1.000000     N
    N   1.0     0.280655     0.077364     0.532778  Biso 1.000000     N
    N   1.0     0.280797     0.577383     0.532906  Biso 1.000000     N
    N   1.0     0.780922     0.077391     0.532699  Biso 1.000000     N
    N   1.0     0.781014     0.577257     0.532876  Biso 1.000000     N
    N   1.0     0.035042     0.240239     0.606620  Biso 1.000000     N
    N   1.0     0.034952     0.740499     0.606696  Biso 1.000000     N
    N   1.0     0.534917     0.240238     0.606672  Biso 1.000000     N
    N   1.0     0.534976     0.740482     0.606728  Biso 1.000000     N
    N   1.0     0.177099     0.292036     0.771750  Biso 1.000000     N
    N   1.0     0.177044     0.792250     0.771731  Biso 1.000000     N
    N   1.0     0.677098     0.292061     0.771609  Biso 1.000000     N
    N   1.0     0.677208     0.792129     0.771460  Biso 1.000000     N
    N   1.0     0.452300     0.136469     0.771704  Biso 1.000000     N
    N   1.0     0.452448     0.636470     0.771610  Biso 1.000000     N
    N   1.0     0.952229     0.136490     0.771332  Biso 1.000000     N
    N   1.0     0.952321     0.636525     0.771291  Biso 1.000000     N
    N   1.0     0.427372     0.213493     0.541345  Biso 1.000000     N
    N   1.0     0.427437     0.713733     0.541397  Biso 1.000000     N
    N   1.0     0.927467     0.213606     0.541378  Biso 1.000000     N
    N   1.0     0.927367     0.713854     0.541395  Biso 1.000000     N
    N   1.0     0.030814     0.172519     0.466494  Biso 1.000000     N
    N   1.0     0.030767     0.672809     0.466513  Biso 1.000000     N
    N   1.0     0.530897     0.172582     0.466424  Biso 1.000000     N
    N   1.0     0.530990     0.672838     0.466471  Biso 1.000000     N
    N   1.0     0.215022     0.259442     0.106734  Biso 1.000000     N
    N   1.0     0.215025     0.759697     0.106699  Biso 1.000000     N
    N   1.0     0.715249     0.259524     0.106725  Biso 1.000000     N
    N   1.0     0.715260     0.759794     0.106682  Biso 1.000000     N
    N   1.0     0.073039     0.207751     0.271838  Biso 1.000000     N
    N   1.0     0.072957     0.707941     0.271795  Biso 1.000000     N
    N   1.0     0.572897     0.207935     0.271467  Biso 1.000000     N
    N   1.0     0.572962     0.708073     0.271626  Biso 1.000000     N
    N   1.0     0.297680     0.363598     0.271342  Biso 1.000000     N
    N   1.0     0.297797     0.863495     0.271572  Biso 1.000000     N
    N   1.0     0.797702     0.363474     0.271457  Biso 1.000000     N
    N   1.0     0.797803     0.863583     0.271489  Biso 1.000000     N
    N   1.0     0.322574     0.286088     0.041394  Biso 1.000000     N
    N   1.0     0.322571     0.786379     0.041402  Biso 1.000000     N
    N   1.0     0.822814     0.286174     0.041329  Biso 1.000000     N
    N   1.0     0.822828     0.786396     0.041308  Biso 1.000000     N
    N   1.0     0.219140     0.327173     0.966542  Biso 1.000000     N
    N   1.0     0.219177     0.827463     0.966552  Biso 1.000000     N
    N   1.0     0.719296     0.327253     0.966499  Biso 1.000000     N
    N   1.0     0.719360     0.827522     0.966465  Biso 1.000000     N
   Fe   1.0     0.000064    -0.000010    -0.000239  Biso 1.000000    Fe
   Fe   1.0     0.000075     0.499991    -0.000224  Biso 1.000000    Fe
   Fe   1.0     0.500025    -0.000015    -0.000256  Biso 1.000000    Fe
   Fe   1.0     0.500017     0.500006    -0.000212  Biso 1.000000    Fe
   Fe   1.0     0.249865    -0.000018     0.499770  Biso 1.000000    Fe
   Fe   1.0     0.249891     0.500057     0.499772  Biso 1.000000    Fe
   Fe   1.0     0.750198     0.000024     0.499701  Biso 1.000000    Fe
   Fe   1.0     0.750183     0.499939     0.499759  Biso 1.000000    Fe
   Fe   1.0     0.000114     0.249838     0.499727  Biso 1.000000    Fe
   Fe   1.0     0.000020     0.750171     0.499781  Biso 1.000000    Fe
   Fe   1.0     0.499988     0.249843     0.499736  Biso 1.000000    Fe
   Fe   1.0     0.500057     0.750149     0.499784  Biso 1.000000    Fe
   Fe   1.0     0.249879     0.249786    -0.000204  Biso 1.000000    Fe
   Fe   1.0     0.249897     0.750128    -0.000225  Biso 1.000000    Fe
   Fe   1.0     0.750166     0.249883    -0.000236  Biso 1.000000    Fe
   Fe   1.0     0.750197     0.750194    -0.000264  Biso 1.000000    Fe
