#======================================================================

# CRYSTAL DATA

#----------------------------------------------------------------------

data_VESTA_phase_1


_pd_phase_name                         MOF
_cell_length_a                         15.16000
_cell_length_b                         21.04500
_cell_length_c                         13.26000
_cell_angle_alpha                      89.98600
_cell_angle_beta                       89.96200
_cell_angle_gamma                      90.10200
_symmetry_space_group_name_H-M         "P 1"
_symmetry_Int_Tables_number            1

loop_
_symmetry_equiv_pos_as_xyz
   "x, y, z"

loop_
   _atom_site_label
   _atom_site_occupancy
   _atom_site_fract_x
   _atom_site_fract_y
   _atom_site_fract_z
   _atom_site_adp_type
   _atom_site_B_iso_or_equiv
   _atom_site_type_symbol
    H   1.0     0.482115     0.198798     0.367972  Biso 1.000000     H
    H   1.0     0.482152     0.698805     0.367856  Biso 1.000000     H
    H   1.0     0.982170     0.198813     0.367972  Biso 1.000000     H
    H   1.0     0.981525     0.698742     0.367868  Biso 1.000000     H
    H   1.0     0.388523     0.327904     0.688477  Biso 1.000000     H
    H   1.0     0.388530     0.827971     0.688394  Biso 1.000000     H
    H   1.0     0.888551     0.327897     0.688532  Biso 1.000000     H
    H   1.0     0.888477     0.827984     0.688469  Biso 1.000000     H
    H   1.0     0.382314     0.412761     0.818041  Biso 1.000000     H
    H   1.0     0.382347     0.912932     0.817810  Biso 1.000000     H
    H   1.0     0.882390     0.412761     0.818089  Biso 1.000000     H
    H   1.0     0.882373     0.912935     0.817897  Biso 1.000000     H
    H   1.0     0.470218     0.049297     0.614732  Biso 1.000000     H
    H   1.0     0.470047     0.549291     0.615183  Biso 1.000000     H
    H   1.0     0.970256     0.049290     0.614810  Biso 1.000000     H
    H   1.0     0.969865     0.549306     0.615105  Biso 1.000000     H
    H   1.0     0.487714     0.470050     0.478822  Biso 1.000000     H
    H   1.0     0.487824     0.969963     0.478498  Biso 1.000000     H
    H   1.0     0.987485     0.470063     0.478747  Biso 1.000000     H
    H   1.0     0.987791     0.969961     0.478563  Biso 1.000000     H
    H   1.0     0.269110     0.300924     0.868184  Biso 1.000000     H
    H   1.0     0.268891     0.801148     0.869314  Biso 1.000000     H
    H   1.0     0.769091     0.300968     0.868303  Biso 1.000000     H
    H   1.0     0.768878     0.801140     0.869365  Biso 1.000000     H
    H   1.0     0.361450     0.171507     0.188496  Biso 1.000000     H
    H   1.0     0.361424     0.671525     0.189574  Biso 1.000000     H
    H   1.0     0.861419     0.171557     0.188627  Biso 1.000000     H
    H   1.0     0.860982     0.671470     0.189766  Biso 1.000000     H
    H   1.0     0.366749     0.086623     0.318219  Biso 1.000000     H
    H   1.0     0.366882     0.586435     0.319031  Biso 1.000000     H
    H   1.0     0.866718     0.086666     0.318350  Biso 1.000000     H
    H   1.0     0.866212     0.586371     0.319191  Biso 1.000000     H
    H   1.0     0.278523     0.450487     0.115774  Biso 1.000000     H
    H   1.0     0.278381     0.950417     0.115410  Biso 1.000000     H
    H   1.0     0.778499     0.450409     0.115575  Biso 1.000000     H
    H   1.0     0.778424     0.950456     0.115503  Biso 1.000000     H
    H   1.0     0.261593     0.029752     0.978911  Biso 1.000000     H
    H   1.0     0.261604     0.530027     0.979575  Biso 1.000000     H
    H   1.0     0.761623     0.029801     0.979012  Biso 1.000000     H
    H   1.0     0.761689     0.529983     0.979424  Biso 1.000000     H
    H   1.0     0.017515     0.448624     0.134325  Biso 1.000000     H
    H   1.0     0.017616     0.948675     0.134455  Biso 1.000000     H
    H   1.0     0.517669     0.448721     0.134415  Biso 1.000000     H
    H   1.0     0.517653     0.948665     0.134445  Biso 1.000000     H
    H   1.0     0.111137     0.077814     0.813633  Biso 1.000000     H
    H   1.0     0.111386     0.577846     0.813773  Biso 1.000000     H
    H   1.0     0.611160     0.077816     0.813638  Biso 1.000000     H
    H   1.0     0.611323     0.577875     0.813723  Biso 1.000000     H
    H   1.0     0.117352     0.162638     0.683927  Biso 1.000000     H
    H   1.0     0.117666     0.662652     0.684059  Biso 1.000000     H
    H   1.0     0.617370     0.162643     0.683933  Biso 1.000000     H
    H   1.0     0.617594     0.662678     0.683990  Biso 1.000000     H
    H   1.0     0.029752     0.299050     0.886578  Biso 1.000000     H
    H   1.0     0.029766     0.799058     0.886542  Biso 1.000000     H
    H   1.0     0.529764     0.299050     0.886589  Biso 1.000000     H
    H   1.0     0.529822     0.799111     0.886501  Biso 1.000000     H
    H   1.0     0.012115     0.219826     0.023085  Biso 1.000000     H
    H   1.0     0.012013     0.719844     0.023038  Biso 1.000000     H
    H   1.0     0.512125     0.219822     0.023091  Biso 1.000000     H
    H   1.0     0.512108     0.719904     0.023030  Biso 1.000000     H
    H   1.0     0.230889     0.051390     0.632796  Biso 1.000000     H
    H   1.0     0.230991     0.551353     0.632940  Biso 1.000000     H
    H   1.0     0.730885     0.051434     0.632886  Biso 1.000000     H
    H   1.0     0.730939     0.551356     0.632915  Biso 1.000000     H
    H   1.0     0.138293     0.421729     0.312458  Biso 1.000000     H
    H   1.0     0.138379     0.921672     0.312431  Biso 1.000000     H
    H   1.0     0.638416     0.421722     0.312446  Biso 1.000000     H
    H   1.0     0.638515     0.921794     0.312410  Biso 1.000000     H
    H   1.0     0.132903     0.336713     0.182924  Biso 1.000000     H
    H   1.0     0.132706     0.836581     0.183039  Biso 1.000000     H
    H   1.0     0.633007     0.336701     0.182913  Biso 1.000000     H
    H   1.0     0.633062     0.836758     0.182901  Biso 1.000000     H
    H   1.0     0.221283     0.200870     0.386075  Biso 1.000000     H
    H   1.0     0.221034     0.700790     0.386306  Biso 1.000000     H
    H   1.0     0.721235     0.200843     0.386126  Biso 1.000000     H
    H   1.0     0.721223     0.700901     0.386147  Biso 1.000000     H
    H   1.0     0.238178     0.280360     0.522342  Biso 1.000000     H
    H   1.0     0.238127     0.780345     0.522436  Biso 1.000000     H
    H   1.0     0.738133     0.280336     0.522387  Biso 1.000000     H
    H   1.0     0.738157     0.780415     0.522389  Biso 1.000000     H
    C   1.0     0.446231     0.302034     0.223226  Biso 1.000000     C
    C   1.0     0.446223     0.802037     0.223146  Biso 1.000000     C
    C   1.0     0.946183     0.302035     0.223229  Biso 1.000000     C
    C   1.0     0.946027     0.802089     0.223170  Biso 1.000000     C
    C   1.0     0.448060     0.299598     0.337642  Biso 1.000000     C
    C   1.0     0.448021     0.799596     0.337539  Biso 1.000000     C
    C   1.0     0.947996     0.299594     0.337645  Biso 1.000000     C
    C   1.0     0.947760     0.799617     0.337563  Biso 1.000000     C
    C   1.0     0.466698     0.246406     0.394608  Biso 1.000000     C
    C   1.0     0.466691     0.746405     0.394497  Biso 1.000000     C
    C   1.0     0.966704     0.246413     0.394609  Biso 1.000000     C
    C   1.0     0.966245     0.746381     0.394500  Biso 1.000000     C
    C   1.0     0.443959     0.342993     0.492946  Biso 1.000000     C
    C   1.0     0.443928     0.842984     0.492812  Biso 1.000000     C
    C   1.0     0.943870     0.342989     0.492951  Biso 1.000000     C
    C   1.0     0.943776     0.842990     0.492854  Biso 1.000000     C
    C   1.0     0.438636     0.391446     0.571771  Biso 1.000000     C
    C   1.0     0.438665     0.891449     0.571594  Biso 1.000000     C
    C   1.0     0.938544     0.391446     0.571769  Biso 1.000000     C
    C   1.0     0.938603     0.891451     0.571652  Biso 1.000000     C
    C   1.0     0.411057     0.375843     0.669969  Biso 1.000000     C
    C   1.0     0.411087     0.875894     0.669808  Biso 1.000000     C
    C   1.0     0.911046     0.375840     0.669996  Biso 1.000000     C
    C   1.0     0.911052     0.875902     0.669879  Biso 1.000000     C
    C   1.0     0.405789     0.423407     0.742220  Biso 1.000000     C
    C   1.0     0.405844     0.923506     0.741973  Biso 1.000000     C
    C   1.0     0.905800     0.423409     0.742241  Biso 1.000000     C
    C   1.0     0.905852     0.923511     0.742052  Biso 1.000000     C
    C   1.0     0.454116     0.499512     0.628906  Biso 1.000000     C
    C   1.0     0.454256     0.999531     0.628519  Biso 1.000000     C
    C   1.0     0.953989     0.499522     0.628862  Biso 1.000000     C
    C   1.0     0.954270     0.999527     0.628597  Biso 1.000000     C
    C   1.0     0.462295     0.454965     0.552212  Biso 1.000000     C
    C   1.0     0.462399     0.954935     0.551912  Biso 1.000000     C
    C   1.0     0.962144     0.454971     0.552170  Biso 1.000000     C
    C   1.0     0.962375     0.954933     0.551982  Biso 1.000000     C
    C   1.0     0.303819     0.197861     0.723419  Biso 1.000000     C
    C   1.0     0.303906     0.697907     0.724716  Biso 1.000000     C
    C   1.0     0.803824     0.197873     0.723584  Biso 1.000000     C
    C   1.0     0.803893     0.697905     0.724745  Biso 1.000000     C
    C   1.0     0.302371     0.200015     0.837814  Biso 1.000000     C
    C   1.0     0.302341     0.700275     0.839021  Biso 1.000000     C
    C   1.0     0.802368     0.200059     0.837963  Biso 1.000000     C
    C   1.0     0.802318     0.700267     0.839052  Biso 1.000000     C
    C   1.0     0.284215     0.253271     0.894844  Biso 1.000000     C
    C   1.0     0.284046     0.753510     0.896016  Biso 1.000000     C
    C   1.0     0.784198     0.253317     0.894978  Biso 1.000000     C
    C   1.0     0.784017     0.753496     0.896057  Biso 1.000000     C
    C   1.0     0.306234     0.156556     0.993021  Biso 1.000000     C
    C   1.0     0.306133     0.656789     0.994147  Biso 1.000000     C
    C   1.0     0.806222     0.156607     0.993163  Biso 1.000000     C
    C   1.0     0.806071     0.656761     0.994172  Biso 1.000000     C
    C   1.0     0.311117     0.108114     0.071838  Biso 1.000000     C
    C   1.0     0.311050     0.608269     0.072809  Biso 1.000000     C
    C   1.0     0.811106     0.108162     0.071968  Biso 1.000000     C
    C   1.0     0.810913     0.608226     0.072819  Biso 1.000000     C
    C   1.0     0.338645     0.123639     0.170043  Biso 1.000000     C
    C   1.0     0.338626     0.623672     0.171033  Biso 1.000000     C
    C   1.0     0.838624     0.123686     0.170175  Biso 1.000000     C
    C   1.0     0.838265     0.623614     0.171127  Biso 1.000000     C
    C   1.0     0.343377     0.076078     0.242358  Biso 1.000000     C
    C   1.0     0.343443     0.576008     0.243157  Biso 1.000000     C
    C   1.0     0.843357     0.076124     0.242484  Biso 1.000000     C
    C   1.0     0.842962     0.575938     0.243248  Biso 1.000000     C
    C   1.0     0.294643     0.000139     0.129070  Biso 1.000000     C
    C   1.0     0.294722     0.500201     0.129604  Biso 1.000000     C
    C   1.0     0.794660     0.000182     0.129173  Biso 1.000000     C
    C   1.0     0.794599     0.500131     0.129491  Biso 1.000000     C
    C   1.0     0.286957     0.044701     0.052330  Biso 1.000000     C
    C   1.0     0.286958     0.544875     0.053048  Biso 1.000000     C
    C   1.0     0.786971     0.044747     0.052439  Biso 1.000000     C
    C   1.0     0.786921     0.544823     0.052956  Biso 1.000000     C
    C   1.0     0.053689     0.052054     0.278973  Biso 1.000000     C
    C   1.0     0.052447     0.552105     0.278983  Biso 1.000000     C
    C   1.0     0.553677     0.052050     0.278972  Biso 1.000000     C
    C   1.0     0.553710     0.552081     0.278974  Biso 1.000000     C
    C   1.0     0.051798     0.049570     0.164564  Biso 1.000000     C
    C   1.0     0.051312     0.549563     0.164573  Biso 1.000000     C
    C   1.0     0.551804     0.049565     0.164563  Biso 1.000000     C
    C   1.0     0.551806     0.549617     0.164565  Biso 1.000000     C
    C   1.0     0.033094    -0.003697     0.107725  Biso 1.000000     C
    C   1.0     0.032962     0.496270     0.107649  Biso 1.000000     C
    C   1.0     0.533119    -0.003704     0.107720  Biso 1.000000     C
    C   1.0     0.533119     0.496357     0.107703  Biso 1.000000     C
    C   1.0     0.055831     0.092888     0.009173  Biso 1.000000     C
    C   1.0     0.055773     0.592899     0.009208  Biso 1.000000     C
    C   1.0     0.555845     0.092885     0.009174  Biso 1.000000     C
    C   1.0     0.555861     0.592959     0.009188  Biso 1.000000     C
    C   1.0     0.061122     0.141302     0.930260  Biso 1.000000     C
    C   1.0     0.061185     0.641323     0.930318  Biso 1.000000     C
    C   1.0     0.561136     0.141301     0.930264  Biso 1.000000     C
    C   1.0     0.561194     0.641373     0.930276  Biso 1.000000     C
    C   1.0     0.088644     0.125710     0.832076  Biso 1.000000     C
    C   1.0     0.088841     0.625735     0.832182  Biso 1.000000     C
    C   1.0     0.588662     0.125711     0.832081  Biso 1.000000     C
    C   1.0     0.588798     0.625770     0.832127  Biso 1.000000     C
    C   1.0     0.093908     0.173260     0.759742  Biso 1.000000     C
    C   1.0     0.094140     0.673274     0.759837  Biso 1.000000     C
    C   1.0     0.593924     0.173262     0.759748  Biso 1.000000     C
    C   1.0     0.594091     0.673307     0.759776  Biso 1.000000     C
    C   1.0     0.045646     0.249302     0.872939  Biso 1.000000     C
    C   1.0     0.045710     0.749314     0.872942  Biso 1.000000     C
    C   1.0     0.545658     0.249302     0.872947  Biso 1.000000     C
    C   1.0     0.545738     0.749362     0.872899  Biso 1.000000     C
    C   1.0     0.037478     0.204768     0.949714  Biso 1.000000     C
    C   1.0     0.037482     0.704785     0.949717  Biso 1.000000     C
    C   1.0     0.537489     0.204766     0.949720  Biso 1.000000     C
    C   1.0     0.537527     0.704840     0.949687  Biso 1.000000     C
    C   1.0     0.196005     0.447892     0.777413  Biso 1.000000     C
    C   1.0     0.196009     0.947913     0.777377  Biso 1.000000     C
    C   1.0     0.695997     0.447894     0.777412  Biso 1.000000     C
    C   1.0     0.696013     0.947926     0.777392  Biso 1.000000     C
    C   1.0     0.197504     0.450373     0.663107  Biso 1.000000     C
    C   1.0     0.197521     0.950384     0.663070  Biso 1.000000     C
    C   1.0     0.697500     0.450370     0.663107  Biso 1.000000     C
    C   1.0     0.697531     0.950418     0.663090  Biso 1.000000     C
    C   1.0     0.215786     0.503702     0.606182  Biso 1.000000     C
    C   1.0     0.215734     0.000000     0.606108  Biso 1.000000     C
    C   1.0     0.715754     0.503700     0.606168  Biso 1.000000     C
    C   1.0     0.715738     0.000000     0.606163  Biso 1.000000     C
    C   1.0     0.193612     0.407009     0.507908  Biso 1.000000     C
    C   1.0     0.193664     0.906996     0.507895  Biso 1.000000     C
    C   1.0     0.693625     0.407000     0.507916  Biso 1.000000     C
    C   1.0     0.693700     0.907068     0.507891  Biso 1.000000     C
    C   1.0     0.188686     0.358531     0.429175  Biso 1.000000     C
    C   1.0     0.188692     0.858496     0.429209  Biso 1.000000     C
    C   1.0     0.688707     0.358516     0.429195  Biso 1.000000     C
    C   1.0     0.688783     0.858588     0.429171  Biso 1.000000     C
    C   1.0     0.161116     0.373928     0.330964  Biso 1.000000     C
    C   1.0     0.161108     0.873858     0.330989  Biso 1.000000     C
    C   1.0     0.661187     0.373913     0.330964  Biso 1.000000     C
    C   1.0     0.661268     0.873982     0.330938  Biso 1.000000     C
    C   1.0     0.156332     0.326298     0.258792  Biso 1.000000     C
    C   1.0     0.156173     0.826187     0.258899  Biso 1.000000     C
    C   1.0     0.656398     0.326282     0.258795  Biso 1.000000     C
    C   1.0     0.656449     0.826343     0.258787  Biso 1.000000     C
    C   1.0     0.205065     0.250547     0.372281  Biso 1.000000     C
    C   1.0     0.204855     0.750466     0.372454  Biso 1.000000     C
    C   1.0     0.705048     0.250525     0.372318  Biso 1.000000     C
    C   1.0     0.705064     0.750585     0.372332  Biso 1.000000     C
    C   1.0     0.212805     0.295191     0.448878  Biso 1.000000     C
    C   1.0     0.212729     0.795148     0.448974  Biso 1.000000     C
    C   1.0     0.712787     0.295170     0.448913  Biso 1.000000     C
    C   1.0     0.712830     0.795239     0.448907  Biso 1.000000     C
    N   1.0     0.434781     0.353576     0.394683  Biso 1.000000     N
    N   1.0     0.434719     0.853575     0.394559  Biso 1.000000     N
    N   1.0     0.934655     0.353562     0.394691  Biso 1.000000     N
    N   1.0     0.934606     0.853607     0.394601  Biso 1.000000     N
    N   1.0     0.425267     0.485041     0.722946  Biso 1.000000     N
    N   1.0     0.425364     0.985117     0.722561  Biso 1.000000     N
    N   1.0     0.925228     0.485047     0.722935  Biso 1.000000     N
    N   1.0     0.925389     0.985120     0.722647  Biso 1.000000     N
    N   1.0     0.315235     0.145948     0.894725  Biso 1.000000     N
    N   1.0     0.315244     0.646192     0.895887  Biso 1.000000     N
    N   1.0     0.815233     0.145993     0.894874  Biso 1.000000     N
    N   1.0     0.815207     0.646179     0.895910  Biso 1.000000     N
    N   1.0     0.323449     0.014525     0.223105  Biso 1.000000     N
    N   1.0     0.323542     0.514480     0.223673  Biso 1.000000     N
    N   1.0     0.823444     0.014570     0.223216  Biso 1.000000     N
    N   1.0     0.823201     0.514400     0.223653  Biso 1.000000     N
    N   1.0     0.065077     0.103548     0.107404  Biso 1.000000     N
    N   1.0     0.064646     0.603563     0.107482  Biso 1.000000     N
    N   1.0     0.565079     0.103545     0.107407  Biso 1.000000     N
    N   1.0     0.565079     0.603606     0.107425  Biso 1.000000     N
    N   1.0     0.074472     0.234855     0.778922  Biso 1.000000     N
    N   1.0     0.074640     0.734865     0.778967  Biso 1.000000     N
    N   1.0     0.574485     0.234857     0.778930  Biso 1.000000     N
    N   1.0     0.574626     0.734902     0.778912  Biso 1.000000     N
    N   1.0     0.184556     0.396312     0.606159  Biso 1.000000     N
    N   1.0     0.184634     0.896305     0.606155  Biso 1.000000     N
    N   1.0     0.684574     0.396303     0.606170  Biso 1.000000     N
    N   1.0     0.684660     0.896351     0.606142  Biso 1.000000     N
    N   1.0     0.176242     0.264812     0.278224  Biso 1.000000     N
    N   1.0     0.175961     0.764687     0.278411  Biso 1.000000     N
    N   1.0     0.676262     0.264790     0.278248  Biso 1.000000     N
    N   1.0     0.676279     0.764849     0.278262  Biso 1.000000     N
    O   1.0     0.430218     0.355119     0.182089  Biso 1.000000     O
    O   1.0     0.430198     0.855122     0.182014  Biso 1.000000     O
    O   1.0     0.930148     0.355118     0.182096  Biso 1.000000     O
    O   1.0     0.930082     0.855188     0.182044  Biso 1.000000     O
    O   1.0     0.462656     0.250085     0.177990  Biso 1.000000     O
    O   1.0     0.462677     0.750089     0.177928  Biso 1.000000     O
    O   1.0     0.962650     0.250093     0.177991  Biso 1.000000     O
    O   1.0     0.962448     0.750144     0.177924  Biso 1.000000     O
    O   1.0     0.318288     0.144801     0.681479  Biso 1.000000     O
    O   1.0     0.318396     0.644629     0.683524  Biso 1.000000     O
    O   1.0     0.818284     0.144784     0.681736  Biso 1.000000     O
    O   1.0     0.818395     0.644631     0.683549  Biso 1.000000     O
    O   1.0     0.288522     0.250270     0.679043  Biso 1.000000     O
    O   1.0     0.288704     0.750099     0.679656  Biso 1.000000     O
    O   1.0     0.788539     0.250254     0.679125  Biso 1.000000     O
    O   1.0     0.788691     0.750098     0.679681  Biso 1.000000     O
    O   1.0     0.069791     0.105166     0.320057  Biso 1.000000     O
    O   1.0     0.066716     0.605479     0.320096  Biso 1.000000     O
    O   1.0     0.569776     0.105162     0.320058  Biso 1.000000     O
    O   1.0     0.569800     0.605195     0.320069  Biso 1.000000     O
    O   1.0     0.037241     0.000067     0.324252  Biso 1.000000     O
    O   1.0     0.037076     0.499953     0.324237  Biso 1.000000     O
    O   1.0     0.537221     0.000064     0.324251  Biso 1.000000     O
    O   1.0     0.537273     0.500092     0.324248  Biso 1.000000     O
    O   1.0     0.181556     0.394541     0.818540  Biso 1.000000     O
    O   1.0     0.181568     0.894569     0.818529  Biso 1.000000     O
    O   1.0     0.681557     0.394543     0.818546  Biso 1.000000     O
    O   1.0     0.681562     0.894576     0.818524  Biso 1.000000     O
    O   1.0     0.211229     0.500086     0.822542  Biso 1.000000     O
    O   1.0     0.211219     0.000000     0.822497  Biso 1.000000     O
    O   1.0     0.711208     0.500090     0.822537  Biso 1.000000     O
    O   1.0     0.711226     0.000000     0.822527  Biso 1.000000     O
    S   1.0     0.467692     0.264038     0.520292  Biso 1.000000     S
    S   1.0     0.467703     0.764040     0.520179  Biso 1.000000     S
    S   1.0     0.967702     0.264049     0.520292  Biso 1.000000     S
    S   1.0     0.967305     0.764003     0.520184  Biso 1.000000     S
    S   1.0     0.283146     0.235589     0.020473  Biso 1.000000     S
    S   1.0     0.282900     0.735799     0.021642  Biso 1.000000     S
    S   1.0     0.783122     0.235640     0.020609  Biso 1.000000     S
    S   1.0     0.782845     0.735773     0.021679  Biso 1.000000     S
    S   1.0     0.032015     0.013866     0.982020  Biso 1.000000     S
    S   1.0     0.032227     0.513844     0.981942  Biso 1.000000     S
    S   1.0     0.532051     0.013860     0.982015  Biso 1.000000     S
    S   1.0     0.532064     0.513937     0.982003  Biso 1.000000     S
    S   1.0     0.216872     0.486099     0.480514  Biso 1.000000     S
    S   1.0     0.216820     0.986091     0.480449  Biso 1.000000     S
    S   1.0     0.716830     0.486095     0.480503  Biso 1.000000     S
    S   1.0     0.716842     0.986172     0.480495  Biso 1.000000     S
   Ag   1.0     0.393361     0.439142     0.306752  Biso 1.000000    Ag
   Ag   1.0     0.393242     0.939200     0.306490  Biso 1.000000    Ag
   Ag   1.0     0.892976     0.439074     0.306801  Biso 1.000000    Ag
   Ag   1.0     0.893219     0.939252     0.306591  Biso 1.000000    Ag
   Ag   1.0     0.355600     0.060412     0.805986  Biso 1.000000    Ag
   Ag   1.0     0.355623     0.560376     0.806984  Biso 1.000000    Ag
   Ag   1.0     0.855621     0.060423     0.806119  Biso 1.000000    Ag
   Ag   1.0     0.855606     0.560374     0.806997  Biso 1.000000    Ag
   Ag   1.0     0.106407     0.189293     0.195184  Biso 1.000000    Ag
   Ag   1.0     0.105720     0.689278     0.195529  Biso 1.000000    Ag
   Ag   1.0     0.606409     0.189288     0.195192  Biso 1.000000    Ag
   Ag   1.0     0.606431     0.689337     0.195208  Biso 1.000000    Ag
   Ag   1.0     0.144203     0.310326     0.694875  Biso 1.000000    Ag
   Ag   1.0     0.144439     0.810308     0.694944  Biso 1.000000    Ag
   Ag   1.0     0.644228     0.310325     0.694898  Biso 1.000000    Ag
   Ag   1.0     0.644489     0.810330     0.694899  Biso 1.000000    Ag
