#======================================================================

# CRYSTAL DATA

#----------------------------------------------------------------------

data_VESTA_phase_1


_pd_phase_name                         MOF
_cell_length_a                         11.53400
_cell_length_b                         12.44600
_cell_length_c                         22.99300
_cell_angle_alpha                      98.24800
_cell_angle_beta                       90.00000
_cell_angle_gamma                      90.00000
_symmetry_space_group_name_H-M         "P 1"
_symmetry_Int_Tables_number            1

loop_
_symmetry_equiv_pos_as_xyz
   "x, y, z"

loop_
   _atom_site_label
   _atom_site_occupancy
   _atom_site_fract_x
   _atom_site_fract_y
   _atom_site_fract_z
   _atom_site_adp_type
   _atom_site_B_iso_or_equiv
   _atom_site_type_symbol
    H   1.0     0.266183     0.377435     0.931632  Biso 1.000000     H
    H   1.0     0.766175     0.377427     0.931631  Biso 1.000000     H
    H   1.0     0.224679     0.426951     0.039085  Biso 1.000000     H
    H   1.0     0.724668     0.426955     0.039083  Biso 1.000000     H
    H   1.0     0.382728     0.288771     0.011493  Biso 1.000000     H
    H   1.0     0.882717     0.288762     0.011493  Biso 1.000000     H
    H   1.0     0.425335     0.240189     0.904393  Biso 1.000000     H
    H   1.0     0.925321     0.240193     0.904393  Biso 1.000000     H
    H   1.0     0.223838     0.350887     0.168844  Biso 1.000000     H
    H   1.0     0.723832     0.350888     0.168841  Biso 1.000000     H
    H   1.0     0.270106     0.190894     0.219431  Biso 1.000000     H
    H   1.0     0.770091     0.190906     0.219439  Biso 1.000000     H
    H   1.0     0.433136     0.056405     0.175563  Biso 1.000000     H
    H   1.0     0.933126     0.056392     0.175552  Biso 1.000000     H
    H   1.0     0.387470     0.211753     0.122194  Biso 1.000000     H
    H   1.0     0.887452     0.211753     0.122196  Biso 1.000000     H
    H   1.0     0.016181     0.122542     0.568353  Biso 1.000000     H
    H   1.0     0.516170     0.122546     0.568353  Biso 1.000000     H
    H   1.0     0.474672     0.073035     0.460910  Biso 1.000000     H
    H   1.0     0.974661     0.073038     0.460909  Biso 1.000000     H
    H   1.0     0.132736     0.211227     0.488500  Biso 1.000000     H
    H   1.0     0.632724     0.211227     0.488500  Biso 1.000000     H
    H   1.0     0.175333     0.259791     0.595590  Biso 1.000000     H
    H   1.0     0.675317     0.259783     0.595591  Biso 1.000000     H
    H   1.0     0.473834     0.149093     0.331150  Biso 1.000000     H
    H   1.0     0.973822     0.149092     0.331151  Biso 1.000000     H
    H   1.0     0.020108     0.309068     0.280550  Biso 1.000000     H
    H   1.0     0.520097     0.309075     0.280554  Biso 1.000000     H
    H   1.0     0.183142     0.443580     0.324430  Biso 1.000000     H
    H   1.0     0.683129     0.443577     0.324425  Biso 1.000000     H
    H   1.0     0.137472     0.288230     0.377796  Biso 1.000000     H
    H   1.0     0.637462     0.288233     0.377797  Biso 1.000000     H
    H   1.0     0.233807     0.622524     0.068358  Biso 1.000000     H
    H   1.0     0.733793     0.622528     0.068358  Biso 1.000000     H
    H   1.0     0.275310     0.573010     0.960905  Biso 1.000000     H
    H   1.0     0.775296     0.573011     0.960905  Biso 1.000000     H
    H   1.0     0.117260     0.711195     0.988496  Biso 1.000000     H
    H   1.0     0.617246     0.711200     0.988496  Biso 1.000000     H
    H   1.0     0.074658     0.759765     0.095596  Biso 1.000000     H
    H   1.0     0.574644     0.759768     0.095596  Biso 1.000000     H
    H   1.0     0.276147     0.649075     0.831146  Biso 1.000000     H
    H   1.0     0.776129     0.649073     0.831149  Biso 1.000000     H
    H   1.0     0.229885     0.809057     0.780550  Biso 1.000000     H
    H   1.0     0.729876     0.809041     0.780539  Biso 1.000000     H
    H   1.0     0.066856     0.943547     0.824413  Biso 1.000000     H
    H   1.0     0.566841     0.943561     0.824426  Biso 1.000000     H
    H   1.0     0.112516     0.788214     0.877793  Biso 1.000000     H
    H   1.0     0.612509     0.788212     0.877792  Biso 1.000000     H
    H   1.0     0.483800     0.877412     0.431637  Biso 1.000000     H
    H   1.0     0.983781     0.877396     0.431638  Biso 1.000000     H
    H   1.0     0.025318     0.926942     0.539077  Biso 1.000000     H
    H   1.0     0.525306     0.926937     0.539079  Biso 1.000000     H
    H   1.0     0.367257     0.788757     0.511487  Biso 1.000000     H
    H   1.0     0.867242     0.788744     0.511488  Biso 1.000000     H
    H   1.0     0.324645     0.740156     0.404400  Biso 1.000000     H
    H   1.0     0.824637     0.740166     0.404399  Biso 1.000000     H
    H   1.0     0.026148     0.850870     0.668834  Biso 1.000000     H
    H   1.0     0.526142     0.850871     0.668837  Biso 1.000000     H
    H   1.0     0.479878     0.690887     0.719432  Biso 1.000000     H
    H   1.0     0.979866     0.690893     0.719435  Biso 1.000000     H
    H   1.0     0.316847     0.556391     0.675561  Biso 1.000000     H
    H   1.0     0.816833     0.556381     0.675555  Biso 1.000000     H
    H   1.0     0.362512     0.711735     0.622189  Biso 1.000000     H
    H   1.0     0.862503     0.711731     0.622190  Biso 1.000000     H
    C   1.0     0.123190     0.277128     0.847231  Biso 1.000000     C
    C   1.0     0.623180     0.277121     0.847232  Biso 1.000000     C
    C   1.0     0.098605     0.305796     0.911764  Biso 1.000000     C
    C   1.0     0.598595     0.305788     0.911764  Biso 1.000000     C
    C   1.0     0.182974     0.357607     0.949682  Biso 1.000000     C
    C   1.0     0.682964     0.357603     0.949681  Biso 1.000000     C
    C   1.0     0.159899     0.385888     0.009410  Biso 1.000000     C
    C   1.0     0.659889     0.385889     0.009409  Biso 1.000000     C
    C   1.0     0.051165     0.361153     0.030882  Biso 1.000000     C
    C   1.0     0.551154     0.361156     0.030882  Biso 1.000000     C
    C   1.0     0.466728     0.307382     0.993866  Biso 1.000000     C
    C   1.0     0.966716     0.307377     0.993866  Biso 1.000000     C
    C   1.0     0.490566     0.280398     0.934205  Biso 1.000000     C
    C   1.0     0.990553     0.280400     0.934205  Biso 1.000000     C
    C   1.0     0.053504     0.289193     0.142057  Biso 1.000000     C
    C   1.0     0.553495     0.289196     0.142058  Biso 1.000000     C
    C   1.0     0.161537     0.285267     0.169329  Biso 1.000000     C
    C   1.0     0.661529     0.285271     0.169328  Biso 1.000000     C
    C   1.0     0.187006     0.196238     0.197636  Biso 1.000000     C
    C   1.0     0.686994     0.196248     0.197641  Biso 1.000000     C
    C   1.0     0.105723     0.113149     0.199722  Biso 1.000000     C
    C   1.0     0.605709     0.113163     0.199732  Biso 1.000000     C
    C   1.0    -0.002376     0.119287     0.172497  Biso 1.000000     C
    C   1.0     0.497612     0.119296     0.172504  Biso 1.000000     C
    C   1.0     0.471588     0.206441     0.143015  Biso 1.000000     C
    C   1.0     0.971572     0.206439     0.143014  Biso 1.000000     C
    C   1.0     0.133908     0.018937     0.232318  Biso 1.000000     C
    C   1.0     0.633894     0.018949     0.232327  Biso 1.000000     C
    C   1.0     0.373174     0.222853     0.652753  Biso 1.000000     C
    C   1.0     0.873159     0.222847     0.652754  Biso 1.000000     C
    C   1.0     0.348592     0.194184     0.588220  Biso 1.000000     C
    C   1.0     0.848577     0.194176     0.588221  Biso 1.000000     C
    C   1.0     0.432963     0.142377     0.550302  Biso 1.000000     C
    C   1.0     0.932950     0.142376     0.550302  Biso 1.000000     C
    C   1.0     0.409891     0.114097     0.490585  Biso 1.000000     C
    C   1.0     0.909879     0.114097     0.490584  Biso 1.000000     C
    C   1.0     0.301157     0.138831     0.469111  Biso 1.000000     C
    C   1.0     0.801144     0.138830     0.469112  Biso 1.000000     C
    C   1.0     0.216733     0.192614     0.506116  Biso 1.000000     C
    C   1.0     0.716720     0.192612     0.506116  Biso 1.000000     C
    C   1.0     0.240566     0.219586     0.565778  Biso 1.000000     C
    C   1.0     0.740553     0.219583     0.565779  Biso 1.000000     C
    C   1.0     0.303497     0.210787     0.357933  Biso 1.000000     C
    C   1.0     0.803484     0.210786     0.357932  Biso 1.000000     C
    C   1.0     0.411531     0.214711     0.330663  Biso 1.000000     C
    C   1.0     0.911520     0.214709     0.330663  Biso 1.000000     C
    C   1.0     0.436999     0.303734     0.302351  Biso 1.000000     C
    C   1.0     0.936987     0.303730     0.302348  Biso 1.000000     C
    C   1.0     0.355716     0.386821     0.300261  Biso 1.000000     C
    C   1.0     0.855703     0.386815     0.300257  Biso 1.000000     C
    C   1.0     0.247617     0.380688     0.327488  Biso 1.000000     C
    C   1.0     0.747605     0.380687     0.327486  Biso 1.000000     C
    C   1.0     0.221591     0.293542     0.356975  Biso 1.000000     C
    C   1.0     0.721580     0.293543     0.356975  Biso 1.000000     C
    C   1.0     0.383902     0.481036     0.267667  Biso 1.000000     C
    C   1.0     0.883890     0.481030     0.267663  Biso 1.000000     C
    C   1.0     0.376799     0.722835     0.152758  Biso 1.000000     C
    C   1.0     0.876787     0.722835     0.152758  Biso 1.000000     C
    C   1.0     0.401385     0.694163     0.088226  Biso 1.000000     C
    C   1.0     0.901373     0.694163     0.088225  Biso 1.000000     C
    C   1.0     0.317015     0.642355     0.050308  Biso 1.000000     C
    C   1.0     0.817001     0.642357     0.050308  Biso 1.000000     C
    C   1.0     0.340090     0.614074     0.990580  Biso 1.000000     C
    C   1.0     0.840076     0.614074     0.990580  Biso 1.000000     C
    C   1.0     0.448824     0.638809     0.969107  Biso 1.000000     C
    C   1.0     0.948812     0.638806     0.969107  Biso 1.000000     C
    C   1.0     0.033261     0.692582     0.006123  Biso 1.000000     C
    C   1.0     0.533248     0.692585     0.006123  Biso 1.000000     C
    C   1.0     0.009425     0.719561     0.065785  Biso 1.000000     C
    C   1.0     0.509412     0.719563     0.065785  Biso 1.000000     C
    C   1.0     0.446484     0.710769     0.857930  Biso 1.000000     C
    C   1.0     0.946470     0.710766     0.857928  Biso 1.000000     C
    C   1.0     0.338450     0.714693     0.830659  Biso 1.000000     C
    C   1.0     0.838434     0.714689     0.830659  Biso 1.000000     C
    C   1.0     0.312983     0.803717     0.802347  Biso 1.000000     C
    C   1.0     0.812971     0.803704     0.802340  Biso 1.000000     C
    C   1.0     0.394267     0.886803     0.800257  Biso 1.000000     C
    C   1.0     0.894257     0.886787     0.800245  Biso 1.000000     C
    C   1.0     0.502365     0.880670     0.827484  Biso 1.000000     C
    C   1.0     0.000000     0.880661     0.827476  Biso 1.000000     C
    C   1.0     0.028399     0.793522     0.856970  Biso 1.000000     C
    C   1.0     0.528391     0.793524     0.856972  Biso 1.000000     C
    C   1.0     0.366081     0.981017     0.767662  Biso 1.000000     C
    C   1.0     0.866070     0.981003     0.767652  Biso 1.000000     C
    C   1.0     0.126800     0.777088     0.347238  Biso 1.000000     C
    C   1.0     0.626793     0.777102     0.347237  Biso 1.000000     C
    C   1.0     0.151385     0.805752     0.411771  Biso 1.000000     C
    C   1.0     0.651378     0.805769     0.411770  Biso 1.000000     C
    C   1.0     0.067019     0.857578     0.449686  Biso 1.000000     C
    C   1.0     0.567010     0.857585     0.449687  Biso 1.000000     C
    C   1.0     0.090095     0.885872     0.509403  Biso 1.000000     C
    C   1.0     0.590085     0.885871     0.509404  Biso 1.000000     C
    C   1.0     0.198830     0.861139     0.530876  Biso 1.000000     C
    C   1.0     0.698819     0.861136     0.530877  Biso 1.000000     C
    C   1.0     0.283256     0.807359     0.493872  Biso 1.000000     C
    C   1.0     0.783243     0.807353     0.493872  Biso 1.000000     C
    C   1.0     0.259418     0.780372     0.434211  Biso 1.000000     C
    C   1.0     0.759407     0.780375     0.434210  Biso 1.000000     C
    C   1.0     0.196488     0.789179     0.642052  Biso 1.000000     C
    C   1.0     0.696479     0.789176     0.642053  Biso 1.000000     C
    C   1.0     0.088453     0.785254     0.669322  Biso 1.000000     C
    C   1.0     0.588444     0.785252     0.669323  Biso 1.000000     C
    C   1.0     0.062988     0.696233     0.697637  Biso 1.000000     C
    C   1.0     0.562977     0.696228     0.697635  Biso 1.000000     C
    C   1.0     0.144273     0.613149     0.699730  Biso 1.000000     C
    C   1.0     0.644260     0.613141     0.699725  Biso 1.000000     C
    C   1.0     0.252370     0.619281     0.672501  Biso 1.000000     C
    C   1.0     0.752358     0.619273     0.672497  Biso 1.000000     C
    C   1.0     0.278395     0.706424     0.643011  Biso 1.000000     C
    C   1.0     0.778384     0.706420     0.643010  Biso 1.000000     C
    C   1.0     0.116088     0.518935     0.732324  Biso 1.000000     C
    C   1.0     0.616074     0.518929     0.732320  Biso 1.000000     C
    O   1.0     0.240602     0.999718     0.239836  Biso 1.000000     O
    O   1.0     0.740589     0.999713     0.239831  Biso 1.000000     O
    O   1.0     0.049284     0.967268     0.249971  Biso 1.000000     O
    O   1.0     0.549272     0.967260     0.249966  Biso 1.000000     O
    O   1.0     0.227557     0.267599     0.829847  Biso 1.000000     O
    O   1.0     0.727547     0.267610     0.829847  Biso 1.000000     O
    O   1.0     0.036104     0.259497     0.812555  Biso 1.000000     O
    O   1.0     0.536095     0.259502     0.812555  Biso 1.000000     O
    O   1.0     0.095212     0.491403     0.127670  Biso 1.000000     O
    O   1.0     0.595201     0.491405     0.127670  Biso 1.000000     O
    O   1.0     0.391103     0.416615     0.110188  Biso 1.000000     O
    O   1.0     0.891089     0.416615     0.110187  Biso 1.000000     O
    O   1.0     0.490595     0.500231     0.260163  Biso 1.000000     O
    O   1.0     0.990584     0.500234     0.260166  Biso 1.000000     O
    O   1.0     0.299278     0.532684     0.250027  Biso 1.000000     O
    O   1.0     0.799267     0.532688     0.250029  Biso 1.000000     O
    O   1.0     0.477540     0.232395     0.670137  Biso 1.000000     O
    O   1.0     0.977525     0.232402     0.670137  Biso 1.000000     O
    O   1.0     0.286087     0.240496     0.687427  Biso 1.000000     O
    O   1.0     0.786071     0.240500     0.687426  Biso 1.000000     O
    O   1.0     0.345205     0.008579     0.372326  Biso 1.000000     O
    O   1.0     0.845192     0.008580     0.372325  Biso 1.000000     O
    O   1.0     0.141107     0.083369     0.389807  Biso 1.000000     O
    O   1.0     0.641095     0.083370     0.389807  Biso 1.000000     O
    O   1.0     0.259386     0.000253     0.760158  Biso 1.000000     O
    O   1.0     0.759373     0.000260     0.760165  Biso 1.000000     O
    O   1.0     0.450703     0.032705     0.750022  Biso 1.000000     O
    O   1.0     0.950690     0.032715     0.750028  Biso 1.000000     O
    O   1.0     0.272432     0.732369     0.170142  Biso 1.000000     O
    O   1.0     0.772421     0.732368     0.170142  Biso 1.000000     O
    O   1.0     0.463884     0.740470     0.187434  Biso 1.000000     O
    O   1.0     0.963873     0.740470     0.187433  Biso 1.000000     O
    O   1.0     0.404777     0.508560     0.872319  Biso 1.000000     O
    O   1.0     0.904765     0.508558     0.872319  Biso 1.000000     O
    O   1.0     0.108885     0.583351     0.889801  Biso 1.000000     O
    O   1.0     0.608875     0.583350     0.889802  Biso 1.000000     O
    O   1.0     0.009394     0.499734     0.739824  Biso 1.000000     O
    O   1.0     0.509381     0.499736     0.739826  Biso 1.000000     O
    O   1.0     0.200712     0.467280     0.749960  Biso 1.000000     O
    O   1.0     0.700699     0.467284     0.749962  Biso 1.000000     O
    O   1.0     0.022433     0.767599     0.329852  Biso 1.000000     O
    O   1.0     0.522427     0.767581     0.329853  Biso 1.000000     O
    O   1.0     0.213884     0.759486     0.312560  Biso 1.000000     O
    O   1.0     0.713879     0.759477     0.312561  Biso 1.000000     O
    O   1.0     0.154783     0.991389     0.627664  Biso 1.000000     O
    O   1.0     0.654773     0.991386     0.627664  Biso 1.000000     O
    O   1.0     0.358881     0.916597     0.610183  Biso 1.000000     O
    O   1.0     0.858870     0.916596     0.610183  Biso 1.000000     O
    S   1.0     0.016323     0.401464     0.106212  Biso 1.000000     S
    S   1.0     0.516313     0.401466     0.106212  Biso 1.000000     S
    S   1.0     0.266317     0.098520     0.393781  Biso 1.000000     S
    S   1.0     0.766305     0.098521     0.393781  Biso 1.000000     S
    S   1.0     0.483665     0.598500     0.893776  Biso 1.000000     S
    S   1.0     0.983650     0.598499     0.893777  Biso 1.000000     S
    S   1.0     0.233670     0.901449     0.606206  Biso 1.000000     S
    S   1.0     0.733660     0.901446     0.606207  Biso 1.000000     S
   Sr   1.0     0.126094     0.630045     0.224495  Biso 1.000000    Sr
   Sr   1.0     0.626082     0.630046     0.224496  Biso 1.000000    Sr
   Sr   1.0     0.376087     0.869902     0.275499  Biso 1.000000    Sr
   Sr   1.0     0.876075     0.869904     0.275498  Biso 1.000000    Sr
   Sr   1.0     0.373896     0.369921     0.775491  Biso 1.000000    Sr
   Sr   1.0     0.873884     0.369922     0.775490  Biso 1.000000    Sr
   Sr   1.0     0.123897     0.130069     0.724491  Biso 1.000000    Sr
   Sr   1.0     0.623884     0.130067     0.724491  Biso 1.000000    Sr
