#======================================================================

# CRYSTAL DATA

#----------------------------------------------------------------------

data_VESTA_phase_1


_pd_phase_name                         MOF
_cell_length_a                         11.54300
_cell_length_b                         12.43100
_cell_length_c                         22.93900
_cell_angle_alpha                      97.88200
_cell_angle_beta                       90.00000
_cell_angle_gamma                      90.00000
_symmetry_space_group_name_H-M         "P 1"
_symmetry_Int_Tables_number            1

loop_
_symmetry_equiv_pos_as_xyz
   "x, y, z"

loop_
   _atom_site_label
   _atom_site_occupancy
   _atom_site_fract_x
   _atom_site_fract_y
   _atom_site_fract_z
   _atom_site_adp_type
   _atom_site_B_iso_or_equiv
   _atom_site_type_symbol
    H   1.0     0.265417     0.376912     0.931276  Biso 1.000000     H
    H   1.0     0.765405     0.376911     0.931276  Biso 1.000000     H
    H   1.0     0.224443     0.427486     0.038754  Biso 1.000000     H
    H   1.0     0.724430     0.427486     0.038754  Biso 1.000000     H
    H   1.0     0.382535     0.289503     0.012371  Biso 1.000000     H
    H   1.0     0.882523     0.289505     0.012371  Biso 1.000000     H
    H   1.0     0.424529     0.239846     0.905207  Biso 1.000000     H
    H   1.0     0.924516     0.239847     0.905206  Biso 1.000000     H
    H   1.0     0.224140     0.351690     0.169457  Biso 1.000000     H
    H   1.0     0.724127     0.351690     0.169457  Biso 1.000000     H
    H   1.0     0.271232     0.190977     0.219986  Biso 1.000000     H
    H   1.0     0.771220     0.190977     0.219986  Biso 1.000000     H
    H   1.0     0.434853     0.055782     0.176319  Biso 1.000000     H
    H   1.0     0.934841     0.055782     0.176319  Biso 1.000000     H
    H   1.0     0.388281     0.212011     0.123152  Biso 1.000000     H
    H   1.0     0.888269     0.212011     0.123152  Biso 1.000000     H
    H   1.0     0.015430     0.123087     0.568703  Biso 1.000000     H
    H   1.0     0.515418     0.123089     0.568703  Biso 1.000000     H
    H   1.0     0.474434     0.072511     0.461238  Biso 1.000000     H
    H   1.0     0.974421     0.072509     0.461238  Biso 1.000000     H
    H   1.0     0.132539     0.210493     0.487621  Biso 1.000000     H
    H   1.0     0.632526     0.210493     0.487621  Biso 1.000000     H
    H   1.0     0.174541     0.260153     0.594771  Biso 1.000000     H
    H   1.0     0.674528     0.260153     0.594771  Biso 1.000000     H
    H   1.0     0.474131     0.148302     0.330536  Biso 1.000000     H
    H   1.0     0.974119     0.148303     0.330536  Biso 1.000000     H
    H   1.0     0.021237     0.309015     0.280007  Biso 1.000000     H
    H   1.0     0.521224     0.309015     0.280007  Biso 1.000000     H
    H   1.0     0.184859     0.444210     0.323674  Biso 1.000000     H
    H   1.0     0.684846     0.444210     0.323673  Biso 1.000000     H
    H   1.0     0.138286     0.287981     0.376840  Biso 1.000000     H
    H   1.0     0.638274     0.287981     0.376840  Biso 1.000000     H
    H   1.0     0.234557     0.623075     0.068709  Biso 1.000000     H
    H   1.0     0.734544     0.623075     0.068709  Biso 1.000000     H
    H   1.0     0.275533     0.572502     0.961231  Biso 1.000000     H
    H   1.0     0.775521     0.572502     0.961231  Biso 1.000000     H
    H   1.0     0.117440     0.710486     0.987616  Biso 1.000000     H
    H   1.0     0.617428     0.710485     0.987615  Biso 1.000000     H
    H   1.0     0.075445     0.760141     0.094780  Biso 1.000000     H
    H   1.0     0.575433     0.760141     0.094779  Biso 1.000000     H
    H   1.0     0.275838     0.648295     0.830529  Biso 1.000000     H
    H   1.0     0.775826     0.648295     0.830529  Biso 1.000000     H
    H   1.0     0.228745     0.809007     0.780000  Biso 1.000000     H
    H   1.0     0.728733     0.809008     0.780000  Biso 1.000000     H
    H   1.0     0.065124     0.944203     0.823668  Biso 1.000000     H
    H   1.0     0.565111     0.944203     0.823667  Biso 1.000000     H
    H   1.0     0.111695     0.787974     0.876834  Biso 1.000000     H
    H   1.0     0.611683     0.787974     0.876834  Biso 1.000000     H
    H   1.0     0.484549     0.876899     0.431282  Biso 1.000000     H
    H   1.0     0.984537     0.876898     0.431282  Biso 1.000000     H
    H   1.0     0.025543     0.927477     0.538747  Biso 1.000000     H
    H   1.0     0.525532     0.927479     0.538747  Biso 1.000000     H
    H   1.0     0.367440     0.789496     0.512365  Biso 1.000000     H
    H   1.0     0.867427     0.789496     0.512365  Biso 1.000000     H
    H   1.0     0.325439     0.739835     0.405215  Biso 1.000000     H
    H   1.0     0.825426     0.739834     0.405215  Biso 1.000000     H
    H   1.0     0.025846     0.851683     0.669451  Biso 1.000000     H
    H   1.0     0.525832     0.851681     0.669449  Biso 1.000000     H
    H   1.0     0.478739     0.690969     0.719978  Biso 1.000000     H
    H   1.0     0.978729     0.690970     0.719980  Biso 1.000000     H
    H   1.0     0.315118     0.555773     0.676311  Biso 1.000000     H
    H   1.0     0.815107     0.555776     0.676313  Biso 1.000000     H
    H   1.0     0.361690     0.712002     0.623144  Biso 1.000000     H
    H   1.0     0.861679     0.712004     0.623146  Biso 1.000000     H
    C   1.0     0.122065     0.275743     0.847380  Biso 1.000000     C
    C   1.0     0.622053     0.275744     0.847380  Biso 1.000000     C
    C   1.0     0.097836     0.305170     0.911957  Biso 1.000000     C
    C   1.0     0.597823     0.305171     0.911957  Biso 1.000000     C
    C   1.0     0.182328     0.357273     0.949570  Biso 1.000000     C
    C   1.0     0.682316     0.357274     0.949570  Biso 1.000000     C
    C   1.0     0.159565     0.386167     0.009334  Biso 1.000000     C
    C   1.0     0.659553     0.386167     0.009334  Biso 1.000000     C
    C   1.0     0.051024     0.361711     0.031168  Biso 1.000000     C
    C   1.0     0.551012     0.361710     0.031168  Biso 1.000000     C
    C   1.0     0.466405     0.307790     0.994459  Biso 1.000000     C
    C   1.0     0.966392     0.307791     0.994459  Biso 1.000000     C
    C   1.0     0.489923     0.280230     0.934758  Biso 1.000000     C
    C   1.0     0.989911     0.280229     0.934758  Biso 1.000000     C
    C   1.0     0.054063     0.289719     0.142766  Biso 1.000000     C
    C   1.0     0.554051     0.289719     0.142766  Biso 1.000000     C
    C   1.0     0.162122     0.285812     0.169997  Biso 1.000000     C
    C   1.0     0.662110     0.285812     0.169997  Biso 1.000000     C
    C   1.0     0.188076     0.196362     0.198253  Biso 1.000000     C
    C   1.0     0.688063     0.196363     0.198253  Biso 1.000000     C
    C   1.0     0.107352     0.112707     0.200286  Biso 1.000000     C
    C   1.0     0.607340     0.112707     0.200286  Biso 1.000000     C
    C   1.0    -0.000923     0.118971     0.173254  Biso 1.000000     C
    C   1.0     0.499065     0.118971     0.173254  Biso 1.000000     C
    C   1.0     0.472511     0.206637     0.143853  Biso 1.000000     C
    C   1.0     0.972499     0.206637     0.143853  Biso 1.000000     C
    C   1.0     0.136864     0.017668     0.232450  Biso 1.000000     C
    C   1.0     0.636851     0.017668     0.232450  Biso 1.000000     C
    C   1.0     0.372056     0.224250     0.652599  Biso 1.000000     C
    C   1.0     0.872045     0.224250     0.652599  Biso 1.000000     C
    C   1.0     0.347830     0.194816     0.588022  Biso 1.000000     C
    C   1.0     0.847818     0.194817     0.588022  Biso 1.000000     C
    C   1.0     0.432325     0.142719     0.550410  Biso 1.000000     C
    C   1.0     0.932313     0.142719     0.550410  Biso 1.000000     C
    C   1.0     0.409558     0.113831     0.490659  Biso 1.000000     C
    C   1.0     0.909546     0.113830     0.490659  Biso 1.000000     C
    C   1.0     0.301017     0.138285     0.468824  Biso 1.000000     C
    C   1.0     0.801004     0.138284     0.468824  Biso 1.000000     C
    C   1.0     0.216419     0.192211     0.505518  Biso 1.000000     C
    C   1.0     0.716406     0.192211     0.505518  Biso 1.000000     C
    C   1.0     0.239931     0.219762     0.565220  Biso 1.000000     C
    C   1.0     0.739919     0.219763     0.565220  Biso 1.000000     C
    C   1.0     0.304055     0.210273     0.357227  Biso 1.000000     C
    C   1.0     0.804043     0.210273     0.357227  Biso 1.000000     C
    C   1.0     0.412114     0.214180     0.329996  Biso 1.000000     C
    C   1.0     0.912102     0.214180     0.329996  Biso 1.000000     C
    C   1.0     0.438067     0.303629     0.301739  Biso 1.000000     C
    C   1.0     0.938055     0.303629     0.301739  Biso 1.000000     C
    C   1.0     0.357345     0.387285     0.299706  Biso 1.000000     C
    C   1.0     0.857333     0.387284     0.299705  Biso 1.000000     C
    C   1.0     0.249070     0.381021     0.326738  Biso 1.000000     C
    C   1.0     0.749058     0.381021     0.326738  Biso 1.000000     C
    C   1.0     0.222516     0.293355     0.356139  Biso 1.000000     C
    C   1.0     0.722504     0.293355     0.356139  Biso 1.000000     C
    C   1.0     0.386857     0.482324     0.267543  Biso 1.000000     C
    C   1.0     0.886845     0.482324     0.267543  Biso 1.000000     C
    C   1.0     0.377914     0.724239     0.152606  Biso 1.000000     C
    C   1.0     0.877902     0.724239     0.152606  Biso 1.000000     C
    C   1.0     0.402143     0.694807     0.088029  Biso 1.000000     C
    C   1.0     0.902130     0.694807     0.088029  Biso 1.000000     C
    C   1.0     0.317649     0.642708     0.050416  Biso 1.000000     C
    C   1.0     0.817636     0.642708     0.050417  Biso 1.000000     C
    C   1.0     0.340408     0.613822     0.990652  Biso 1.000000     C
    C   1.0     0.840396     0.613822     0.990652  Biso 1.000000     C
    C   1.0     0.448950     0.638277     0.968817  Biso 1.000000     C
    C   1.0     0.948938     0.638277     0.968817  Biso 1.000000     C
    C   1.0     0.033570     0.692198     0.005526  Biso 1.000000     C
    C   1.0     0.533558     0.692198     0.005526  Biso 1.000000     C
    C   1.0     0.010055     0.719752     0.065228  Biso 1.000000     C
    C   1.0     0.510043     0.719752     0.065228  Biso 1.000000     C
    C   1.0     0.445913     0.710266     0.857221  Biso 1.000000     C
    C   1.0     0.945903     0.710265     0.857220  Biso 1.000000     C
    C   1.0     0.337855     0.714173     0.829989  Biso 1.000000     C
    C   1.0     0.837843     0.714173     0.829989  Biso 1.000000     C
    C   1.0     0.311902     0.803621     0.801732  Biso 1.000000     C
    C   1.0     0.811889     0.803622     0.801733  Biso 1.000000     C
    C   1.0     0.392625     0.887277     0.799698  Biso 1.000000     C
    C   1.0     0.892611     0.887279     0.799701  Biso 1.000000     C
    C   1.0     0.500900     0.881013     0.826731  Biso 1.000000     C
    C   1.0     0.000000     0.881014     0.826732  Biso 1.000000     C
    C   1.0     0.027466     0.793348     0.856133  Biso 1.000000     C
    C   1.0     0.527453     0.793348     0.856133  Biso 1.000000     C
    C   1.0     0.363113     0.982318     0.767536  Biso 1.000000     C
    C   1.0     0.863100     0.982316     0.767535  Biso 1.000000     C
    C   1.0     0.127917     0.775732     0.347387  Biso 1.000000     C
    C   1.0     0.627905     0.775732     0.347387  Biso 1.000000     C
    C   1.0     0.152145     0.805161     0.411964  Biso 1.000000     C
    C   1.0     0.652133     0.805161     0.411965  Biso 1.000000     C
    C   1.0     0.067651     0.857262     0.449576  Biso 1.000000     C
    C   1.0     0.567639     0.857262     0.449576  Biso 1.000000     C
    C   1.0     0.090421     0.886158     0.509326  Biso 1.000000     C
    C   1.0     0.590409     0.886159     0.509327  Biso 1.000000     C
    C   1.0     0.198962     0.861702     0.531162  Biso 1.000000     C
    C   1.0     0.698950     0.861703     0.531162  Biso 1.000000     C
    C   1.0     0.283560     0.807778     0.494467  Biso 1.000000     C
    C   1.0     0.783548     0.807777     0.494467  Biso 1.000000     C
    C   1.0     0.260045     0.780219     0.434766  Biso 1.000000     C
    C   1.0     0.760032     0.780218     0.434766  Biso 1.000000     C
    C   1.0     0.195921     0.789711     0.642759  Biso 1.000000     C
    C   1.0     0.695909     0.789711     0.642759  Biso 1.000000     C
    C   1.0     0.087863     0.785805     0.669991  Biso 1.000000     C
    C   1.0     0.587849     0.785804     0.669990  Biso 1.000000     C
    C   1.0     0.061909     0.696356     0.698246  Biso 1.000000     C
    C   1.0     0.561896     0.696355     0.698246  Biso 1.000000     C
    C   1.0     0.142631     0.612699     0.700279  Biso 1.000000     C
    C   1.0     0.642620     0.612700     0.700280  Biso 1.000000     C
    C   1.0     0.250906     0.618963     0.673247  Biso 1.000000     C
    C   1.0     0.750895     0.618964     0.673248  Biso 1.000000     C
    C   1.0     0.277460     0.706628     0.643846  Biso 1.000000     C
    C   1.0     0.777449     0.706630     0.643847  Biso 1.000000     C
    C   1.0     0.113120     0.517661     0.732443  Biso 1.000000     C
    C   1.0     0.613108     0.517661     0.732443  Biso 1.000000     C
    O   1.0     0.243873     0.999706     0.239829  Biso 1.000000     O
    O   1.0     0.743861     0.999706     0.239829  Biso 1.000000     O
    O   1.0     0.053274     0.964066     0.249804  Biso 1.000000     O
    O   1.0     0.553262     0.964066     0.249804  Biso 1.000000     O
    O   1.0     0.226204     0.264469     0.829919  Biso 1.000000     O
    O   1.0     0.726191     0.264468     0.829919  Biso 1.000000     O
    O   1.0     0.034945     0.259315     0.812712  Biso 1.000000     O
    O   1.0     0.534933     0.259315     0.812712  Biso 1.000000     O
    O   1.0     0.095443     0.492128     0.127688  Biso 1.000000     O
    O   1.0     0.595430     0.492128     0.127688  Biso 1.000000     O
    O   1.0     0.391474     0.417051     0.110584  Biso 1.000000     O
    O   1.0     0.891462     0.417051     0.110584  Biso 1.000000     O
    O   1.0     0.493868     0.500267     0.260165  Biso 1.000000     O
    O   1.0     0.993855     0.500267     0.260165  Biso 1.000000     O
    O   1.0     0.303269     0.535908     0.250189  Biso 1.000000     O
    O   1.0     0.803257     0.535909     0.250190  Biso 1.000000     O
    O   1.0     0.476194     0.235537     0.670059  Biso 1.000000     O
    O   1.0     0.976183     0.235537     0.670059  Biso 1.000000     O
    O   1.0     0.284939     0.240688     0.687268  Biso 1.000000     O
    O   1.0     0.784927     0.240687     0.687268  Biso 1.000000     O
    O   1.0     0.345435     0.007865     0.372305  Biso 1.000000     O
    O   1.0     0.845422     0.007865     0.372305  Biso 1.000000     O
    O   1.0     0.141476     0.082942     0.389408  Biso 1.000000     O
    O   1.0     0.641465     0.082942     0.389408  Biso 1.000000     O
    O   1.0     0.256103     0.000280     0.760158  Biso 1.000000     O
    O   1.0     0.756091     0.000279     0.760157  Biso 1.000000     O
    O   1.0     0.446702     0.035922     0.750183  Biso 1.000000     O
    O   1.0     0.946691     0.035918     0.750181  Biso 1.000000     O
    O   1.0     0.273776     0.735523     0.170066  Biso 1.000000     O
    O   1.0     0.773764     0.735523     0.170066  Biso 1.000000     O
    O   1.0     0.465032     0.740674     0.187275  Biso 1.000000     O
    O   1.0     0.965020     0.740674     0.187275  Biso 1.000000     O
    O   1.0     0.404534     0.507858     0.872298  Biso 1.000000     O
    O   1.0     0.904522     0.507858     0.872298  Biso 1.000000     O
    O   1.0     0.108504     0.582934     0.889402  Biso 1.000000     O
    O   1.0     0.608492     0.582935     0.889402  Biso 1.000000     O
    O   1.0     0.006109     0.499719     0.739822  Biso 1.000000     O
    O   1.0     0.506097     0.499719     0.739821  Biso 1.000000     O
    O   1.0     0.196708     0.464079     0.749797  Biso 1.000000     O
    O   1.0     0.696696     0.464077     0.749796  Biso 1.000000     O
    O   1.0     0.023779     0.764453     0.329926  Biso 1.000000     O
    O   1.0     0.523766     0.764454     0.329926  Biso 1.000000     O
    O   1.0     0.215037     0.759301     0.312719  Biso 1.000000     O
    O   1.0     0.715024     0.759301     0.312719  Biso 1.000000     O
    O   1.0     0.154542     0.992120     0.627681  Biso 1.000000     O
    O   1.0     0.654529     0.992120     0.627681  Biso 1.000000     O
    O   1.0     0.358499     0.917044     0.610578  Biso 1.000000     O
    O   1.0     0.858487     0.917044     0.610578  Biso 1.000000     O
    S   1.0     0.016619     0.402119     0.106573  Biso 1.000000     S
    S   1.0     0.516606     0.402119     0.106573  Biso 1.000000     S
    S   1.0     0.266609     0.097873     0.393419  Biso 1.000000     S
    S   1.0     0.766597     0.097873     0.393419  Biso 1.000000     S
    S   1.0     0.483359     0.597866     0.893413  Biso 1.000000     S
    S   1.0     0.983347     0.597866     0.893413  Biso 1.000000     S
    S   1.0     0.233366     0.902112     0.606567  Biso 1.000000     S
    S   1.0     0.733354     0.902112     0.606567  Biso 1.000000     S
   Sr   1.0     0.128165     0.631123     0.224281  Biso 1.000000    Sr
   Sr   1.0     0.628152     0.631124     0.224281  Biso 1.000000    Sr
   Sr   1.0     0.378157     0.868850     0.275712  Biso 1.000000    Sr
   Sr   1.0     0.878145     0.868850     0.275712  Biso 1.000000    Sr
   Sr   1.0     0.371813     0.368862     0.775705  Biso 1.000000    Sr
   Sr   1.0     0.871800     0.368863     0.775705  Biso 1.000000    Sr
   Sr   1.0     0.121819     0.131136     0.724274  Biso 1.000000    Sr
   Sr   1.0     0.621806     0.131136     0.724274  Biso 1.000000    Sr
