#======================================================================

# CRYSTAL DATA

#----------------------------------------------------------------------

data_VESTA_phase_1


_pd_phase_name                         MOF
_cell_length_a                         14.03900
_cell_length_b                         14.06800
_cell_length_c                         14.79100
_cell_angle_alpha                      90.01400
_cell_angle_beta                       89.98100
_cell_angle_gamma                      89.98600
_symmetry_space_group_name_H-M         "P 1"
_symmetry_Int_Tables_number            1

loop_
_symmetry_equiv_pos_as_xyz
   "x, y, z"

loop_
   _atom_site_label
   _atom_site_occupancy
   _atom_site_fract_x
   _atom_site_fract_y
   _atom_site_fract_z
   _atom_site_adp_type
   _atom_site_B_iso_or_equiv
   _atom_site_type_symbol
    H   1.0     0.796481     0.478142     0.123050  Biso 1.000000     H
    H   1.0     0.686382     0.416610     0.109164  Biso 1.000000     H
    H   1.0     0.742791     0.466435     0.013327  Biso 1.000000     H
    H   1.0     0.703249     0.021688     0.122842  Biso 1.000000     H
    H   1.0     0.813378     0.083255     0.109232  Biso 1.000000     H
    H   1.0     0.757244     0.033491     0.013220  Biso 1.000000     H
    H   1.0     0.022933     0.795433     0.624183  Biso 1.000000     H
    H   1.0     0.084003     0.685337     0.609388  Biso 1.000000     H
    H   1.0     0.034273     0.742650     0.514015  Biso 1.000000     H
    H   1.0     0.477194     0.704568     0.624169  Biso 1.000000     H
    H   1.0     0.416057     0.814647     0.609554  Biso 1.000000     H
    H   1.0     0.465825     0.757462     0.514095  Biso 1.000000     H
    H   1.0     0.203334     0.978044     0.376841  Biso 1.000000     H
    H   1.0     0.313461     0.916539     0.390830  Biso 1.000000     H
    H   1.0     0.256937     0.966420     0.486621  Biso 1.000000     H
    H   1.0     0.296513     0.521878     0.376689  Biso 1.000000     H
    H   1.0     0.186406     0.583400     0.390790  Biso 1.000000     H
    H   1.0     0.242961     0.533564     0.486514  Biso 1.000000     H
    H   1.0     0.977085     0.295884     0.876511  Biso 1.000000     H
    H   1.0     0.915887     0.185758     0.890499  Biso 1.000000     H
    H   1.0     0.965372     0.242441     0.986323  Biso 1.000000     H
    H   1.0     0.522831     0.204411     0.876183  Biso 1.000000     H
    H   1.0     0.584032     0.314486     0.890436  Biso 1.000000     H
    H   1.0     0.534394     0.257634     0.986116  Biso 1.000000     H
    H   1.0     0.203187     0.521735     0.877052  Biso 1.000000     H
    H   1.0     0.313209     0.583409     0.890875  Biso 1.000000     H
    H   1.0     0.256920     0.533526     0.986746  Biso 1.000000     H
    H   1.0     0.296686     0.978435     0.877110  Biso 1.000000     H
    H   1.0     0.186615     0.916802     0.890821  Biso 1.000000     H
    H   1.0     0.242791     0.966661     0.986766  Biso 1.000000     H
    H   1.0     0.977122     0.204432     0.376021  Biso 1.000000     H
    H   1.0     0.915989     0.314549     0.390407  Biso 1.000000     H
    H   1.0     0.965544     0.257541     0.486027  Biso 1.000000     H
    H   1.0     0.522738     0.295503     0.375930  Biso 1.000000     H
    H   1.0     0.583902     0.185397     0.390247  Biso 1.000000     H
    H   1.0     0.534330     0.242407     0.485894  Biso 1.000000     H
    H   1.0     0.796653     0.021977     0.623224  Biso 1.000000     H
    H   1.0     0.686540     0.083492     0.609177  Biso 1.000000     H
    H   1.0     0.743078     0.033546     0.513424  Biso 1.000000     H
    H   1.0     0.703451     0.478104     0.623388  Biso 1.000000     H
    H   1.0     0.813547     0.416569     0.609251  Biso 1.000000     H
    H   1.0     0.756967     0.466426     0.513549  Biso 1.000000     H
    H   1.0     0.023002     0.704277     0.123594  Biso 1.000000     H
    H   1.0     0.084097     0.814426     0.109382  Biso 1.000000     H
    H   1.0     0.034546     0.757548     0.013692  Biso 1.000000     H
    H   1.0     0.476990     0.795745     0.123718  Biso 1.000000     H
    H   1.0     0.415814     0.685655     0.109413  Biso 1.000000     H
    H   1.0     0.465501     0.742531     0.013764  Biso 1.000000     H
    C   1.0     0.676405     0.567117     0.100456  Biso 1.000000     C
    C   1.0     0.729141     0.477074     0.085747  Biso 1.000000     C
    C   1.0     0.880198     0.542338     0.343317  Biso 1.000000     C
    C   1.0     0.823436     0.932783     0.100402  Biso 1.000000     C
    C   1.0     0.770685     0.022810     0.085656  Biso 1.000000     C
    C   1.0     0.619801     0.957603     0.343269  Biso 1.000000     C
    C   1.0     0.933181     0.676239     0.600851  Biso 1.000000     C
    C   1.0     0.023620     0.728537     0.586345  Biso 1.000000     C
    C   1.0     0.958074     0.880063     0.843181  Biso 1.000000     C
    C   1.0     0.566902     0.823826     0.600875  Biso 1.000000     C
    C   1.0     0.476477     0.771511     0.586438  Biso 1.000000     C
    C   1.0     0.541937     0.619910     0.843292  Biso 1.000000     C
    C   1.0     0.323399     0.067015     0.399431  Biso 1.000000     C
    C   1.0     0.270635     0.977009     0.414209  Biso 1.000000     C
    C   1.0     0.119645     0.042396     0.156822  Biso 1.000000     C
    C   1.0     0.176473     0.432922     0.399427  Biso 1.000000     C
    C   1.0     0.229225     0.522928     0.414117  Biso 1.000000     C
    C   1.0     0.380246     0.457659     0.156752  Biso 1.000000     C
    C   1.0     0.066708     0.176449     0.899475  Biso 1.000000     C
    C   1.0     0.976236     0.228754     0.913938  Biso 1.000000     C
    C   1.0     0.042085     0.380081     0.656783  Biso 1.000000     C
    C   1.0     0.433192     0.323778     0.899277  Biso 1.000000     C
    C   1.0     0.523641     0.271469     0.913757  Biso 1.000000     C
    C   1.0     0.457943     0.119885     0.656712  Biso 1.000000     C
    C   1.0     0.323408     0.432922     0.899596  Biso 1.000000     C
    C   1.0     0.270546     0.522889     0.914321  Biso 1.000000     C
    C   1.0     0.119792     0.457620     0.656731  Biso 1.000000     C
    C   1.0     0.176485     0.067312     0.899601  Biso 1.000000     C
    C   1.0     0.229273     0.977299     0.914336  Biso 1.000000     C
    C   1.0     0.380188     0.042384     0.656751  Biso 1.000000     C
    C   1.0     0.066785     0.323732     0.399186  Biso 1.000000     C
    C   1.0     0.976340     0.271439     0.413679  Biso 1.000000     C
    C   1.0     0.041832     0.119901     0.156915  Biso 1.000000     C
    C   1.0     0.433091     0.176185     0.399151  Biso 1.000000     C
    C   1.0     0.523528     0.228492     0.413550  Biso 1.000000     C
    C   1.0     0.458007     0.380134     0.156739  Biso 1.000000     C
    C   1.0     0.676592     0.932999     0.600618  Biso 1.000000     C
    C   1.0     0.729362     0.023002     0.585841  Biso 1.000000     C
    C   1.0     0.880294     0.957593     0.843225  Biso 1.000000     C
    C   1.0     0.823487     0.567054     0.600618  Biso 1.000000     C
    C   1.0     0.770728     0.477049     0.585943  Biso 1.000000     C
    C   1.0     0.619707     0.542394     0.843320  Biso 1.000000     C
    C   1.0     0.933254     0.823598     0.100574  Biso 1.000000     C
    C   1.0     0.023754     0.771349     0.086068  Biso 1.000000     C
    C   1.0     0.957892     0.619888     0.343285  Biso 1.000000     C
    C   1.0     0.566638     0.676374     0.100649  Biso 1.000000     C
    C   1.0     0.476204     0.728694     0.086130  Biso 1.000000     C
    C   1.0     0.542040     0.880107     0.343304  Biso 1.000000     C
    N   1.0     0.712150     0.642890     0.143153  Biso 1.000000     N
    N   1.0     0.787727     0.856972     0.143065  Biso 1.000000     N
    N   1.0     0.857129     0.712044     0.643372  Biso 1.000000     N
    N   1.0     0.642861     0.788032     0.643479  Biso 1.000000     N
    N   1.0     0.287718     0.142902     0.356781  Biso 1.000000     N
    N   1.0     0.212221     0.357031     0.356799  Biso 1.000000     N
    N   1.0     0.142671     0.212183     0.856760  Biso 1.000000     N
    N   1.0     0.357237     0.287998     0.856685  Biso 1.000000     N
    N   1.0     0.287793     0.357064     0.856849  Biso 1.000000     N
    N   1.0     0.212132     0.143126     0.856879  Biso 1.000000     N
    N   1.0     0.142848     0.287928     0.356682  Biso 1.000000     N
    N   1.0     0.357132     0.211969     0.356539  Biso 1.000000     N
    N   1.0     0.712278     0.857098     0.643243  Biso 1.000000     N
    N   1.0     0.787754     0.642943     0.643261  Biso 1.000000     N
    N   1.0     0.857361     0.787747     0.143223  Biso 1.000000     N
    N   1.0     0.642580     0.712172     0.143229  Biso 1.000000     N
    N   1.0     0.585695     0.585935     0.072523  Biso 1.000000     N
    N   1.0     0.914148     0.913997     0.072429  Biso 1.000000     N
    N   1.0     0.914177     0.585808     0.572657  Biso 1.000000     N
    N   1.0     0.585907     0.914252     0.572699  Biso 1.000000     N
    N   1.0     0.414056     0.085794     0.427414  Biso 1.000000     N
    N   1.0     0.085791     0.414154     0.427402  Biso 1.000000     N
    N   1.0     0.085746     0.086058     0.927596  Biso 1.000000     N
    N   1.0     0.414123     0.414206     0.927495  Biso 1.000000     N
    O   1.0     0.882731     0.478235     0.401815  Biso 1.000000     O
    O   1.0     0.816644     0.550009     0.281202  Biso 1.000000     O
    O   1.0     0.617244     0.021748     0.401750  Biso 1.000000     O
    O   1.0     0.683387     0.949917     0.281098  Biso 1.000000     O
    O   1.0     0.022554     0.882706     0.901378  Biso 1.000000     O
    O   1.0     0.950121     0.816532     0.781094  Biso 1.000000     O
    O   1.0     0.477564     0.617217     0.901663  Biso 1.000000     O
    O   1.0     0.549743     0.683434     0.781265  Biso 1.000000     O
    O   1.0     0.117131     0.978283     0.098313  Biso 1.000000     O
    O   1.0     0.183343     0.050120     0.218866  Biso 1.000000     O
    O   1.0     0.382776     0.521795     0.098296  Biso 1.000000     O
    O   1.0     0.316632     0.449921     0.218842  Biso 1.000000     O
    O   1.0     0.977794     0.382724     0.598359  Biso 1.000000     O
    O   1.0     0.049854     0.316558     0.718817  Biso 1.000000     O
    O   1.0     0.522247     0.117315     0.598274  Biso 1.000000     O
    O   1.0     0.450113     0.183381     0.718797  Biso 1.000000     O
    O   1.0     0.117244     0.521725     0.598234  Biso 1.000000     O
    O   1.0     0.183346     0.449956     0.718845  Biso 1.000000     O
    O   1.0     0.382772     0.978243     0.598246  Biso 1.000000     O
    O   1.0     0.316611     0.050038     0.718887  Biso 1.000000     O
    O   1.0     0.977299     0.117237     0.098778  Biso 1.000000     O
    O   1.0     0.049862     0.183466     0.218966  Biso 1.000000     O
    O   1.0     0.522345     0.382828     0.098327  Biso 1.000000     O
    O   1.0     0.450224     0.316578     0.218736  Biso 1.000000     O
    O   1.0     0.882800     0.021697     0.901734  Biso 1.000000     O
    O   1.0     0.816625     0.949869     0.781151  Biso 1.000000     O
    O   1.0     0.617190     0.478306     0.901831  Biso 1.000000     O
    O   1.0     0.683321     0.550075     0.781224  Biso 1.000000     O
    O   1.0     0.022177     0.617253     0.401713  Biso 1.000000     O
    O   1.0     0.950134     0.683397     0.281233  Biso 1.000000     O
    O   1.0     0.477729     0.882663     0.401715  Biso 1.000000     O
    O   1.0     0.549908     0.816598     0.281187  Biso 1.000000     O
   Cu   1.0     0.499985     0.499998     0.000002  Biso 1.000000    Cu
   Cu   1.0     0.000027    -0.000036     0.000012  Biso 1.000000    Cu
   Cu   1.0    -0.000011     0.499981     0.500028  Biso 1.000000    Cu
   Cu   1.0     0.499986     0.000031     0.500049  Biso 1.000000    Cu
   Cu   1.0     0.834030     0.666043     0.207368  Biso 1.000000    Cu
   Cu   1.0     0.665936     0.833896     0.207367  Biso 1.000000    Cu
   Cu   1.0     0.834042     0.833857     0.707443  Biso 1.000000    Cu
   Cu   1.0     0.665924     0.666173     0.707453  Biso 1.000000    Cu
   Cu   1.0     0.165941     0.166129     0.292594  Biso 1.000000    Cu
   Cu   1.0     0.334051     0.333822     0.292581  Biso 1.000000    Cu
   Cu   1.0     0.165978     0.333881     0.792653  Biso 1.000000    Cu
   Cu   1.0     0.333997     0.166156     0.792660  Biso 1.000000    Cu
