#======================================================================

# CRYSTAL DATA

#----------------------------------------------------------------------

data_VESTA_phase_1


_pd_phase_name                         MOF
_cell_length_a                         15.23000
_cell_length_b                         17.84800
_cell_length_c                         17.84800
_cell_angle_alpha                      90.00000
_cell_angle_beta                       90.00000
_cell_angle_gamma                      89.99900
_symmetry_space_group_name_H-M         "P 1"
_symmetry_Int_Tables_number            1

loop_
_symmetry_equiv_pos_as_xyz
   "x, y, z"

loop_
   _atom_site_label
   _atom_site_occupancy
   _atom_site_fract_x
   _atom_site_fract_y
   _atom_site_fract_z
   _atom_site_adp_type
   _atom_site_B_iso_or_equiv
   _atom_site_type_symbol
    H   1.0     0.755717     0.818256     0.872227  Biso 1.000000     H
    H   1.0     0.755678     0.834222     0.011619  Biso 1.000000     H
    H   1.0     0.993034     0.702273     0.018817  Biso 1.000000     H
    H   1.0     0.989056     0.697995     0.878534  Biso 1.000000     H
    H   1.0     0.879549     0.655146     0.126170  Biso 1.000000     H
    H   1.0     0.873069     0.906011     0.249314  Biso 1.000000     H
    H   1.0     0.869534     0.895848     0.110671  Biso 1.000000     H
    H   1.0     0.755720     0.681750     0.627781  Biso 1.000000     H
    H   1.0     0.755683     0.665786     0.488383  Biso 1.000000     H
    H   1.0     0.993035     0.797732     0.481183  Biso 1.000000     H
    H   1.0     0.989054     0.802010     0.621473  Biso 1.000000     H
    H   1.0     0.879530     0.844863     0.373832  Biso 1.000000     H
    H   1.0     0.873086     0.593998     0.250686  Biso 1.000000     H
    H   1.0     0.869540     0.604161     0.389329  Biso 1.000000     H
    H   1.0     0.755720     0.627782     0.818258  Biso 1.000000     H
    H   1.0     0.755685     0.488384     0.834223  Biso 1.000000     H
    H   1.0     0.993039     0.481183     0.702276  Biso 1.000000     H
    H   1.0     0.989057     0.621472     0.697998  Biso 1.000000     H
    H   1.0     0.879536     0.373832     0.655146  Biso 1.000000     H
    H   1.0     0.873089     0.250686     0.906011  Biso 1.000000     H
    H   1.0     0.869543     0.389330     0.895849  Biso 1.000000     H
    H   1.0     0.755717     0.872229     0.681752  Biso 1.000000     H
    H   1.0     0.755686     0.011620     0.665788  Biso 1.000000     H
    H   1.0     0.993040     0.018816     0.797736  Biso 1.000000     H
    H   1.0     0.989053     0.878534     0.802014  Biso 1.000000     H
    H   1.0     0.879553     0.126170     0.844863  Biso 1.000000     H
    H   1.0     0.873076     0.249315     0.593998  Biso 1.000000     H
    H   1.0     0.869541     0.110672     0.604162  Biso 1.000000     H
    H   1.0     0.255710     0.818259     0.627782  Biso 1.000000     H
    H   1.0     0.255672     0.834223     0.488384  Biso 1.000000     H
    H   1.0     0.493028     0.702274     0.481185  Biso 1.000000     H
    H   1.0     0.489047     0.697996     0.621474  Biso 1.000000     H
    H   1.0     0.379531     0.655146     0.373832  Biso 1.000000     H
    H   1.0     0.373071     0.906012     0.250688  Biso 1.000000     H
    H   1.0     0.369530     0.895848     0.389331  Biso 1.000000     H
    H   1.0     0.255713     0.681752     0.872229  Biso 1.000000     H
    H   1.0     0.255675     0.665787     0.011620  Biso 1.000000     H
    H   1.0     0.493027     0.797733     0.018818  Biso 1.000000     H
    H   1.0     0.489048     0.802011     0.878536  Biso 1.000000     H
    H   1.0     0.379534     0.844863     0.126171  Biso 1.000000     H
    H   1.0     0.373070     0.593998     0.249317  Biso 1.000000     H
    H   1.0     0.369530     0.604161     0.110673  Biso 1.000000     H
    H   1.0     0.255711     0.627783     0.681754  Biso 1.000000     H
    H   1.0     0.255675     0.488385     0.665789  Biso 1.000000     H
    H   1.0     0.493029     0.481185     0.797738  Biso 1.000000     H
    H   1.0     0.489047     0.621474     0.802016  Biso 1.000000     H
    H   1.0     0.379533     0.373832     0.844864  Biso 1.000000     H
    H   1.0     0.373077     0.250689     0.593998  Biso 1.000000     H
    H   1.0     0.369534     0.389332     0.604163  Biso 1.000000     H
    H   1.0     0.255712     0.872230     0.818260  Biso 1.000000     H
    H   1.0     0.255682     0.011622     0.834225  Biso 1.000000     H
    H   1.0     0.493035     0.018818     0.702278  Biso 1.000000     H
    H   1.0     0.489048     0.878536     0.698000  Biso 1.000000     H
    H   1.0     0.379541     0.126171     0.655147  Biso 1.000000     H
    H   1.0     0.373074     0.249318     0.906011  Biso 1.000000     H
    H   1.0     0.369535     0.110674     0.895850  Biso 1.000000     H
    H   1.0     0.744300     0.181748     0.372224  Biso 1.000000     H
    H   1.0     0.744338     0.165784     0.511622  Biso 1.000000     H
    H   1.0     0.506982     0.297733     0.518821  Biso 1.000000     H
    H   1.0     0.510962     0.302010     0.378532  Biso 1.000000     H
    H   1.0     0.620478     0.344860     0.626174  Biso 1.000000     H
    H   1.0     0.626941     0.093995     0.749318  Biso 1.000000     H
    H   1.0     0.630481     0.104159     0.610675  Biso 1.000000     H
    H   1.0     0.744297     0.318254     0.127778  Biso 1.000000     H
    H   1.0     0.744335     0.334219     0.988386  Biso 1.000000     H
    H   1.0     0.506983     0.202273     0.981188  Biso 1.000000     H
    H   1.0     0.510962     0.197994     0.121470  Biso 1.000000     H
    H   1.0     0.620478     0.155143     0.873835  Biso 1.000000     H
    H   1.0     0.626939     0.406008     0.750690  Biso 1.000000     H
    H   1.0     0.630479     0.395846     0.889333  Biso 1.000000     H
    H   1.0     0.744299     0.372223     0.318254  Biso 1.000000     H
    H   1.0     0.744333     0.511621     0.334218  Biso 1.000000     H
    H   1.0     0.506978     0.518821     0.202271  Biso 1.000000     H
    H   1.0     0.510961     0.378532     0.197993  Biso 1.000000     H
    H   1.0     0.620467     0.626173     0.155143  Biso 1.000000     H
    H   1.0     0.626939     0.749318     0.406008  Biso 1.000000     H
    H   1.0     0.630477     0.610675     0.395845  Biso 1.000000     H
    H   1.0     0.744299     0.127776     0.181748  Biso 1.000000     H
    H   1.0     0.744330     0.988385     0.165783  Biso 1.000000     H
    H   1.0     0.506976     0.981188     0.297731  Biso 1.000000     H
    H   1.0     0.510963     0.121470     0.302009  Biso 1.000000     H
    H   1.0     0.620479     0.873835     0.344860  Biso 1.000000     H
    H   1.0     0.626930     0.750689     0.093995  Biso 1.000000     H
    H   1.0     0.630474     0.889333     0.104158  Biso 1.000000     H
    H   1.0     0.244292     0.181748     0.127778  Biso 1.000000     H
    H   1.0     0.244331     0.165783     0.988386  Biso 1.000000     H
    H   1.0     0.006975     0.297731     0.981188  Biso 1.000000     H
    H   1.0     0.010953     0.302008     0.121470  Biso 1.000000     H
    H   1.0     0.120468     0.344860     0.873835  Biso 1.000000     H
    H   1.0     0.126935     0.093995     0.750690  Biso 1.000000     H
    H   1.0     0.130475     0.104158     0.889333  Biso 1.000000     H
    H   1.0     0.244291     0.318253     0.372224  Biso 1.000000     H
    H   1.0     0.244328     0.334218     0.511622  Biso 1.000000     H
    H   1.0     0.006976     0.202271     0.518821  Biso 1.000000     H
    H   1.0     0.010957     0.197993     0.378532  Biso 1.000000     H
    H   1.0     0.120473     0.155143     0.626174  Biso 1.000000     H
    H   1.0     0.126930     0.406008     0.749318  Biso 1.000000     H
    H   1.0     0.130472     0.395844     0.610675  Biso 1.000000     H
    H   1.0     0.244290     0.372223     0.181747  Biso 1.000000     H
    H   1.0     0.244325     0.511622     0.165783  Biso 1.000000     H
    H   1.0     0.006972     0.518821     0.297731  Biso 1.000000     H
    H   1.0     0.010954     0.378532     0.302008  Biso 1.000000     H
    H   1.0     0.120464     0.626173     0.344860  Biso 1.000000     H
    H   1.0     0.126929     0.749318     0.093995  Biso 1.000000     H
    H   1.0     0.130469     0.610675     0.104158  Biso 1.000000     H
    H   1.0     0.244293     0.127777     0.318253  Biso 1.000000     H
    H   1.0     0.244324     0.988385     0.334219  Biso 1.000000     H
    H   1.0     0.006969     0.981188     0.202272  Biso 1.000000     H
    H   1.0     0.010956     0.121470     0.197993  Biso 1.000000     H
    H   1.0     0.120467     0.873834     0.155143  Biso 1.000000     H
    H   1.0     0.126927     0.750690     0.406009  Biso 1.000000     H
    H   1.0     0.130468     0.889333     0.395845  Biso 1.000000     H
    C   1.0     0.808475     0.795410     0.906807  Biso 1.000000     C
    C   1.0     0.808442     0.803341     0.984291  Biso 1.000000     C
    C   1.0     0.874561     0.769037     0.026954  Biso 1.000000     C
    C   1.0     0.939621     0.729044     0.988298  Biso 1.000000     C
    C   1.0     0.937343     0.725746     0.910513  Biso 1.000000     C
    C   1.0     0.875417     0.774338     0.109619  Biso 1.000000     C
    C   1.0     0.878478     0.710067     0.153051  Biso 1.000000     C
    C   1.0     0.877155     0.713958     0.232220  Biso 1.000000     C
    C   1.0     0.874232     0.851200     0.222217  Biso 1.000000     C
    C   1.0     0.872008     0.845536     0.145343  Biso 1.000000     C
    C   1.0     0.808469     0.704607     0.593199  Biso 1.000000     C
    C   1.0     0.808447     0.696662     0.515717  Biso 1.000000     C
    C   1.0     0.874561     0.730973     0.473047  Biso 1.000000     C
    C   1.0     0.939624     0.770957     0.511710  Biso 1.000000     C
    C   1.0     0.937335     0.774270     0.589494  Biso 1.000000     C
    C   1.0     0.875394     0.725673     0.390381  Biso 1.000000     C
    C   1.0     0.878498     0.789943     0.346949  Biso 1.000000     C
    C   1.0     0.877099     0.786049     0.267781  Biso 1.000000     C
    C   1.0     0.874216     0.648810     0.277783  Biso 1.000000     C
    C   1.0     0.872031     0.654473     0.354658  Biso 1.000000     C
    C   1.0     0.808471     0.593201     0.795403  Biso 1.000000     C
    C   1.0     0.808449     0.515718     0.803347  Biso 1.000000     C
    C   1.0     0.874564     0.473047     0.769036  Biso 1.000000     C
    C   1.0     0.939626     0.511710     0.729051  Biso 1.000000     C
    C   1.0     0.937338     0.589494     0.725739  Biso 1.000000     C
    C   1.0     0.875400     0.390381     0.774336  Biso 1.000000     C
    C   1.0     0.878502     0.346949     0.710067  Biso 1.000000     C
    C   1.0     0.877108     0.267781     0.713960  Biso 1.000000     C
    C   1.0     0.874221     0.277784     0.851200  Biso 1.000000     C
    C   1.0     0.872034     0.354659     0.845537  Biso 1.000000     C
    C   1.0     0.808475     0.906808     0.704597  Biso 1.000000     C
    C   1.0     0.808439     0.984292     0.696669  Biso 1.000000     C
    C   1.0     0.874568     0.026955     0.730971  Biso 1.000000     C
    C   1.0     0.939617     0.988298     0.770966  Biso 1.000000     C
    C   1.0     0.937342     0.910514     0.774261  Biso 1.000000     C
    C   1.0     0.875421     0.109620     0.725671  Biso 1.000000     C
    C   1.0     0.878484     0.153052     0.789943  Biso 1.000000     C
    C   1.0     0.877156     0.232221     0.786051  Biso 1.000000     C
    C   1.0     0.874236     0.222218     0.648810  Biso 1.000000     C
    C   1.0     0.872016     0.145344     0.654473  Biso 1.000000     C
    C   1.0     0.308466     0.795411     0.593201  Biso 1.000000     C
    C   1.0     0.308434     0.803342     0.515717  Biso 1.000000     C
    C   1.0     0.374555     0.769038     0.473049  Biso 1.000000     C
    C   1.0     0.439613     0.729045     0.511711  Biso 1.000000     C
    C   1.0     0.437335     0.725746     0.589496  Biso 1.000000     C
    C   1.0     0.375396     0.774338     0.390383  Biso 1.000000     C
    C   1.0     0.378483     0.710067     0.346951  Biso 1.000000     C
    C   1.0     0.377116     0.713958     0.267783  Biso 1.000000     C
    C   1.0     0.374216     0.851199     0.277784  Biso 1.000000     C
    C   1.0     0.372014     0.845537     0.354659  Biso 1.000000     C
    C   1.0     0.308463     0.704609     0.906809  Biso 1.000000     C
    C   1.0     0.308442     0.696662     0.984292  Biso 1.000000     C
    C   1.0     0.374552     0.730974     0.026956  Biso 1.000000     C
    C   1.0     0.439619     0.770957     0.988299  Biso 1.000000     C
    C   1.0     0.437329     0.774271     0.910515  Biso 1.000000     C
    C   1.0     0.375401     0.725673     0.109622  Biso 1.000000     C
    C   1.0     0.378479     0.789943     0.153054  Biso 1.000000     C
    C   1.0     0.377124     0.786049     0.232222  Biso 1.000000     C
    C   1.0     0.374217     0.648810     0.222218  Biso 1.000000     C
    C   1.0     0.372011     0.654473     0.145344  Biso 1.000000     C
    C   1.0     0.308473     0.593204     0.704595  Biso 1.000000     C
    C   1.0     0.308433     0.515718     0.696674  Biso 1.000000     C
    C   1.0     0.374560     0.473050     0.730971  Biso 1.000000     C
    C   1.0     0.439611     0.511711     0.770971  Biso 1.000000     C
    C   1.0     0.437340     0.589497     0.774259  Biso 1.000000     C
    C   1.0     0.375399     0.390384     0.725671  Biso 1.000000     C
    C   1.0     0.378487     0.346952     0.789942  Biso 1.000000     C
    C   1.0     0.377120     0.267784     0.786053  Biso 1.000000     C
    C   1.0     0.374222     0.277784     0.648811  Biso 1.000000     C
    C   1.0     0.372020     0.354659     0.654473  Biso 1.000000     C
    C   1.0     0.308459     0.906811     0.795400  Biso 1.000000     C
    C   1.0     0.308441     0.984292     0.803352  Biso 1.000000     C
    C   1.0     0.374557     0.026958     0.769036  Biso 1.000000     C
    C   1.0     0.439618     0.988300     0.729057  Biso 1.000000     C
    C   1.0     0.437327     0.910516     0.725736  Biso 1.000000     C
    C   1.0     0.375408     0.109623     0.774337  Biso 1.000000     C
    C   1.0     0.378484     0.153056     0.710066  Biso 1.000000     C
    C   1.0     0.377130     0.232224     0.713962  Biso 1.000000     C
    C   1.0     0.374222     0.222218     0.851201  Biso 1.000000     C
    C   1.0     0.372015     0.145343     0.845537  Biso 1.000000     C
    C   1.0     0.691544     0.204596     0.406804  Biso 1.000000     C
    C   1.0     0.691577     0.196665     0.484288  Biso 1.000000     C
    C   1.0     0.625455     0.230969     0.526958  Biso 1.000000     C
    C   1.0     0.560398     0.270962     0.488295  Biso 1.000000     C
    C   1.0     0.562675     0.274260     0.410510  Biso 1.000000     C
    C   1.0     0.624613     0.225669     0.609623  Biso 1.000000     C
    C   1.0     0.621528     0.289939     0.653055  Biso 1.000000     C
    C   1.0     0.622891     0.286048     0.732223  Biso 1.000000     C
    C   1.0     0.625794     0.148807     0.722222  Biso 1.000000     C
    C   1.0     0.627997     0.154470     0.645347  Biso 1.000000     C
    C   1.0     0.691546     0.295400     0.093197  Biso 1.000000     C
    C   1.0     0.691569     0.303343     0.015714  Biso 1.000000     C
    C   1.0     0.625458     0.269033     0.973050  Biso 1.000000     C
    C   1.0     0.560392     0.229048     0.011707  Biso 1.000000     C
    C   1.0     0.562679     0.225737     0.089491  Biso 1.000000     C
    C   1.0     0.624610     0.274334     0.890385  Biso 1.000000     C
    C   1.0     0.621530     0.210063     0.846952  Biso 1.000000     C
    C   1.0     0.622889     0.213957     0.767784  Biso 1.000000     C
    C   1.0     0.625793     0.351197     0.777788  Biso 1.000000     C
    C   1.0     0.627998     0.345534     0.854662  Biso 1.000000     C
    C   1.0     0.691543     0.406803     0.295404  Biso 1.000000     C
    C   1.0     0.691571     0.484287     0.303340  Biso 1.000000     C
    C   1.0     0.625453     0.526958     0.269034  Biso 1.000000     C
    C   1.0     0.560393     0.488295     0.229044  Biso 1.000000     C
    C   1.0     0.562675     0.410511     0.225740  Biso 1.000000     C
    C   1.0     0.624599     0.609623     0.274334  Biso 1.000000     C
    C   1.0     0.621531     0.653055     0.210063  Biso 1.000000     C
    C   1.0     0.622867     0.732224     0.213956  Biso 1.000000     C
    C   1.0     0.625783     0.722220     0.351197  Biso 1.000000     C
    C   1.0     0.628000     0.645346     0.345533  Biso 1.000000     C
    C   1.0     0.691546     0.093196     0.204599  Biso 1.000000     C
    C   1.0     0.691575     0.015713     0.196662  Biso 1.000000     C
    C   1.0     0.625450     0.973050     0.230969  Biso 1.000000     C
    C   1.0     0.560397     0.011707     0.270958  Biso 1.000000     C
    C   1.0     0.562679     0.089491     0.274263  Biso 1.000000     C
    C   1.0     0.624614     0.890385     0.225669  Biso 1.000000     C
    C   1.0     0.621517     0.846952     0.289939  Biso 1.000000     C
    C   1.0     0.622903     0.767784     0.286047  Biso 1.000000     C
    C   1.0     0.625794     0.777786     0.148807  Biso 1.000000     C
    C   1.0     0.627985     0.854661     0.154469  Biso 1.000000     C
    C   1.0     0.191539     0.204601     0.093197  Biso 1.000000     C
    C   1.0     0.191564     0.196660     0.015714  Biso 1.000000     C
    C   1.0     0.125451     0.230970     0.973050  Biso 1.000000     C
    C   1.0     0.060385     0.270956     0.011707  Biso 1.000000     C
    C   1.0     0.062671     0.274265     0.089491  Biso 1.000000     C
    C   1.0     0.124602     0.225669     0.890385  Biso 1.000000     C
    C   1.0     0.121525     0.289940     0.846952  Biso 1.000000     C
    C   1.0     0.122876     0.286046     0.767784  Biso 1.000000     C
    C   1.0     0.125785     0.148806     0.777788  Biso 1.000000     C
    C   1.0     0.127994     0.154470     0.854662  Biso 1.000000     C
    C   1.0     0.191536     0.295405     0.406804  Biso 1.000000     C
    C   1.0     0.191567     0.303339     0.484288  Biso 1.000000     C
    C   1.0     0.125448     0.269034     0.526958  Biso 1.000000     C
    C   1.0     0.060390     0.229043     0.488295  Biso 1.000000     C
    C   1.0     0.062670     0.225741     0.410511  Biso 1.000000     C
    C   1.0     0.124607     0.274334     0.609623  Biso 1.000000     C
    C   1.0     0.121519     0.210064     0.653055  Biso 1.000000     C
    C   1.0     0.122889     0.213955     0.732223  Biso 1.000000     C
    C   1.0     0.125787     0.351196     0.722221  Biso 1.000000     C
    C   1.0     0.127987     0.345533     0.645347  Biso 1.000000     C
    C   1.0     0.191538     0.406804     0.204601  Biso 1.000000     C
    C   1.0     0.191562     0.484287     0.196659  Biso 1.000000     C
    C   1.0     0.125447     0.526958     0.230970  Biso 1.000000     C
    C   1.0     0.060385     0.488295     0.270955  Biso 1.000000     C
    C   1.0     0.062671     0.410511     0.274265  Biso 1.000000     C
    C   1.0     0.124597     0.609624     0.225669  Biso 1.000000     C
    C   1.0     0.121520     0.653056     0.289940  Biso 1.000000     C
    C   1.0     0.122872     0.732224     0.286047  Biso 1.000000     C
    C   1.0     0.125780     0.722220     0.148807  Biso 1.000000     C
    C   1.0     0.127988     0.645346     0.154470  Biso 1.000000     C
    C   1.0     0.191537     0.093197     0.295405  Biso 1.000000     C
    C   1.0     0.191569     0.015713     0.303339  Biso 1.000000     C
    C   1.0     0.125442     0.973051     0.269034  Biso 1.000000     C
    C   1.0     0.060391     0.011707     0.229043  Biso 1.000000     C
    C   1.0     0.062670     0.089492     0.225741  Biso 1.000000     C
    C   1.0     0.124602     0.890385     0.274335  Biso 1.000000     C
    C   1.0     0.121514     0.846953     0.210064  Biso 1.000000     C
    C   1.0     0.122884     0.767785     0.213955  Biso 1.000000     C
    C   1.0     0.125783     0.777787     0.351196  Biso 1.000000     C
    C   1.0     0.127983     0.854661     0.345533  Biso 1.000000     C
    N   1.0     0.872392     0.757808     0.870351  Biso 1.000000     N
    N   1.0     0.872395     0.742194     0.629657  Biso 1.000000     N
    N   1.0     0.872396     0.629658     0.757813  Biso 1.000000     N
    N   1.0     0.872390     0.870352     0.742202  Biso 1.000000     N
    N   1.0     0.372383     0.757810     0.629657  Biso 1.000000     N
    N   1.0     0.372389     0.742195     0.870351  Biso 1.000000     N
    N   1.0     0.372381     0.629659     0.742207  Biso 1.000000     N
    N   1.0     0.372390     0.870353     0.757818  Biso 1.000000     N
    N   1.0     0.627627     0.242197     0.370348  Biso 1.000000     N
    N   1.0     0.627622     0.257810     0.129654  Biso 1.000000     N
    N   1.0     0.627623     0.370348     0.257807  Biso 1.000000     N
    N   1.0     0.627625     0.129653     0.242195  Biso 1.000000     N
    N   1.0     0.127615     0.242193     0.129654  Biso 1.000000     N
    N   1.0     0.127619     0.257805     0.370348  Biso 1.000000     N
    N   1.0     0.127614     0.370348     0.242192  Biso 1.000000     N
    N   1.0     0.127619     0.129654     0.257805  Biso 1.000000     N
    F   1.0     0.622226     0.699801     0.831167  Biso 1.000000     F
    F   1.0     0.622228     0.800209     0.668844  Biso 1.000000     F
    F   1.0     0.622226     0.668843     0.699801  Biso 1.000000     F
    F   1.0     0.622228     0.831167     0.800208  Biso 1.000000     F
    F   1.0     0.122221     0.699801     0.668843  Biso 1.000000     F
    F   1.0     0.122219     0.800209     0.831167  Biso 1.000000     F
    F   1.0     0.122222     0.668843     0.800208  Biso 1.000000     F
    F   1.0     0.122218     0.831166     0.699801  Biso 1.000000     F
    F   1.0     0.736821     0.750007     0.750004  Biso 1.000000     F
    F   1.0     0.507489     0.750004     0.750006  Biso 1.000000     F
    F   1.0     0.236814     0.750003     0.750004  Biso 1.000000     F
    F   1.0     0.007482     0.750006     0.750004  Biso 1.000000     F
    F   1.0     0.877780     0.300205     0.331163  Biso 1.000000     F
    F   1.0     0.877800     0.199798     0.168840  Biso 1.000000     F
    F   1.0     0.877786     0.331164     0.199798  Biso 1.000000     F
    F   1.0     0.877795     0.168840     0.300205  Biso 1.000000     F
    F   1.0     0.377771     0.300206     0.168841  Biso 1.000000     F
    F   1.0     0.377795     0.199798     0.331165  Biso 1.000000     F
    F   1.0     0.377766     0.331163     0.300204  Biso 1.000000     F
    F   1.0     0.377800     0.168839     0.199797  Biso 1.000000     F
    F   1.0     0.763196     0.250009     0.250008  Biso 1.000000     F
    F   1.0     0.992528     0.249993     0.249996  Biso 1.000000     F
    F   1.0     0.263189     0.250022     0.250001  Biso 1.000000     F
    F   1.0     0.492521     0.249984     0.250002  Biso 1.000000     F
   Si   1.0     0.622149     0.750004     0.750005  Biso 1.000000    Si
   Si   1.0     0.122142     0.750005     0.750005  Biso 1.000000    Si
   Si   1.0     0.877868     0.250002     0.250001  Biso 1.000000    Si
   Si   1.0     0.377861     0.250000     0.250002  Biso 1.000000    Si
   Zn   1.0     0.871606     0.750005     0.750004  Biso 1.000000    Zn
   Zn   1.0     0.371598     0.750006     0.750004  Biso 1.000000    Zn
   Zn   1.0     0.628411     0.250001     0.250001  Biso 1.000000    Zn
   Zn   1.0     0.128405     0.250002     0.250001  Biso 1.000000    Zn
