#======================================================================

# CRYSTAL DATA

#----------------------------------------------------------------------

data_VESTA_phase_1


_pd_phase_name                         MOF
_cell_length_a                         13.26700
_cell_length_b                         13.35600
_cell_length_c                         14.05300
_cell_angle_alpha                      89.80500
_cell_angle_beta                       89.61800
_cell_angle_gamma                      82.99700
_symmetry_space_group_name_H-M         "P 1"
_symmetry_Int_Tables_number            1

loop_
_symmetry_equiv_pos_as_xyz
   "x, y, z"

loop_
   _atom_site_label
   _atom_site_occupancy
   _atom_site_fract_x
   _atom_site_fract_y
   _atom_site_fract_z
   _atom_site_adp_type
   _atom_site_B_iso_or_equiv
   _atom_site_type_symbol
    H   1.0     0.622457     0.491924     0.668425  Biso 1.000000     H
    H   1.0     0.666162    -0.078369     0.593223  Biso 1.000000     H
    H   1.0     0.838851     0.125527     0.460487  Biso 1.000000     H
    H   1.0     0.257813     0.582693     0.938838  Biso 1.000000     H
    H   1.0     0.421829     0.785262     0.792105  Biso 1.000000     H
    H   1.0     0.814922     0.480614     0.851404  Biso 1.000000     H
    H   1.0    -0.129425     0.669366     0.636046  Biso 1.000000     H
    H   1.0     0.153459     0.252800     0.493965  Biso 1.000000     H
    H   1.0    -0.037643     0.100069     0.666595  Biso 1.000000     H
    H   1.0     0.048381    -0.031351     0.420051  Biso 1.000000     H
    H   1.0     0.413602     0.302272     0.766540  Biso 1.000000     H
    H   1.0     0.000000     0.235703     0.838377  Biso 1.000000     H
    H   1.0     0.824453     0.164576     0.021434  Biso 1.000000     H
    H   1.0     0.296546     0.623810     0.469000  Biso 1.000000     H
    H   1.0     0.126695     0.486183     0.673903  Biso 1.000000     H
    H   1.0     0.423025     0.090693     0.610219  Biso 1.000000     H
    H   1.0     0.189069     0.945810     0.815388  Biso 1.000000     H
    H   1.0     0.667305     0.868278     0.036758  Biso 1.000000     H
    H   1.0     0.734149     0.930897     0.758060  Biso 1.000000     H
    H   1.0     0.833531     0.000000     0.071295  Biso 1.000000     H
    H   1.0     0.321512     0.449842     0.293767  Biso 1.000000     H
    H   1.0     0.222287     0.000000     0.370266  Biso 1.000000     H
    H   1.0     0.071784     0.798024     0.505440  Biso 1.000000     H
    H   1.0     0.644101     0.376011    -0.012701  Biso 1.000000     H
    H   1.0     0.511178     0.201170     0.190973  Biso 1.000000     H
    H   1.0     0.073524     0.452375     0.113145  Biso 1.000000     H
    H   1.0     0.000000     0.264225     0.336645  Biso 1.000000     H
    H   1.0     0.765271     0.678917     0.487508  Biso 1.000000     H
    H   1.0     0.935206     0.824390     0.288615  Biso 1.000000     H
    H   1.0     0.859428     0.954803     0.539702  Biso 1.000000     H
    H   1.0     0.482193     0.675539     0.181108  Biso 1.000000     H
    H   1.0    -0.096797     0.683611     0.125166  Biso 1.000000     H
    H   1.0     0.059183     0.780366     0.943136  Biso 1.000000     H
    H   1.0     0.611701     0.330560     0.468371  Biso 1.000000     H
    H   1.0     0.823773     0.456359     0.296123  Biso 1.000000     H
    H   1.0     0.480316     0.825585     0.343579  Biso 1.000000     H
    H   1.0     0.699858     0.017197     0.174815  Biso 1.000000     H
    H   1.0     0.226386     0.092467     0.945467  Biso 1.000000     H
    H   1.0     0.152408    -0.001931     0.199029  Biso 1.000000     H
    H   1.0     0.051570    -0.077421     0.898527  Biso 1.000000     H
    H   1.0     0.914388     0.174507     0.307128  Biso 1.000000     H
    H   1.0    -0.016578     0.755291     0.670390  Biso 1.000000     H
    C   1.0     0.588598     0.426772     0.693951  Biso 1.000000     C
    C   1.0     0.703815    -0.012507     0.577293  Biso 1.000000     C
    C   1.0     0.790440     0.091669     0.510473  Biso 1.000000     C
    C   1.0     0.295681     0.647563     0.919887  Biso 1.000000     C
    C   1.0     0.378703     0.750085     0.845964  Biso 1.000000     C
    C   1.0     0.841665     0.508181     0.784211  Biso 1.000000     C
    C   1.0     0.890192     0.603003     0.675279  Biso 1.000000     C
    C   1.0     0.089154     0.234198     0.535618  Biso 1.000000     C
    C   1.0    -0.008745     0.156623     0.621877  Biso 1.000000     C
    C   1.0     0.000000     0.017608     0.369892  Biso 1.000000     C
    C   1.0     0.482737     0.330949     0.743063  Biso 1.000000     C
    C   1.0     0.933755     0.203184     0.857805  Biso 1.000000     C
    C   1.0     0.825836     0.125293     0.931521  Biso 1.000000     C
    C   1.0     0.237073     0.588287     0.504245  Biso 1.000000     C
    C   1.0     0.151277     0.519253     0.608387  Biso 1.000000     C
    C   1.0     0.407624     0.050481     0.674902  Biso 1.000000     C
    C   1.0     0.338544    -0.035784     0.778889  Biso 1.000000     C
    C   1.0     0.635747     0.837596     0.940430  Biso 1.000000     C
    C   1.0     0.687660     0.912384     0.818058  Biso 1.000000     C
    C   1.0     0.925489     0.000005     0.149992  Biso 1.000000     C
    C   1.0     0.341207     0.520881     0.265987  Biso 1.000000     C
    C   1.0     0.189919     0.949239     0.386161  Biso 1.000000     C
    C   1.0     0.114514     0.836882     0.454143  Biso 1.000000     C
    C   1.0     0.610176     0.315559     0.022142  Biso 1.000000     C
    C   1.0     0.543161     0.227324     0.125508  Biso 1.000000     C
    C   1.0     0.054132     0.424616     0.182751  Biso 1.000000     C
    C   1.0     0.014763     0.330250     0.296195  Biso 1.000000     C
    C   1.0     0.825204     0.696182     0.439566  Biso 1.000000     C
    C   1.0     0.912412     0.770073     0.339550  Biso 1.000000     C
    C   1.0    -0.134612     0.908663     0.594500  Biso 1.000000     C
    C   1.0     0.422200     0.635332     0.209401  Biso 1.000000     C
    C   1.0    -0.032910     0.722962     0.105321  Biso 1.000000     C
    C   1.0     0.064036     0.813934     0.032320  Biso 1.000000     C
    C   1.0     0.679775     0.359603     0.442628  Biso 1.000000     C
    C   1.0     0.787441     0.422400     0.355451  Biso 1.000000     C
    C   1.0     0.491427     0.880196     0.288322  Biso 1.000000     C
    C   1.0     0.553368     0.990072     0.203305  Biso 1.000000     C
    C   1.0     0.256400     0.116246     0.035567  Biso 1.000000     C
    C   1.0     0.200932     0.025354     0.144686  Biso 1.000000     C
    C   1.0    -0.035344     0.936396     0.820418  Biso 1.000000     C
    C   1.0     0.956989     0.102317     0.283690  Biso 1.000000     C
    C   1.0    -0.060061     0.828705     0.688837  Biso 1.000000     C
    N   1.0     0.641153     0.336262     0.706737  Biso 1.000000     N
    N   1.0     0.758251     0.133721     0.592754  Biso 1.000000     N
    N   1.0     0.701807     0.066121     0.636395  Biso 1.000000     N
    N   1.0     0.758708    -0.000338     0.497101  Biso 1.000000     N
    N   1.0     0.334453     0.807236     0.014257  Biso 1.000000     N
    N   1.0     0.344364     0.659137     0.835786  Biso 1.000000     N
    N   1.0     0.353330     0.792156     0.929809  Biso 1.000000     N
    N   1.0     0.858330     0.450422     0.706943  Biso 1.000000     N
    N   1.0     0.860753     0.604882     0.768325  Biso 1.000000     N
    N   1.0     0.890569     0.512209     0.636608  Biso 1.000000     N
    N   1.0     0.003323     0.296921     0.545867  Biso 1.000000     N
    N   1.0     0.085531     0.145302     0.582264  Biso 1.000000     N
    N   1.0     0.975485     0.245883     0.601420  Biso 1.000000     N
    N   1.0     0.937901     0.018319     0.349382  Biso 1.000000     N
    N   1.0     0.030966     0.092030     0.316616  Biso 1.000000     N
    N   1.0     0.572576     0.273644     0.738419  Biso 1.000000     N
    N   1.0     0.783117     0.155649     0.849223  Biso 1.000000     N
    N   1.0     0.852899     0.206299     0.801502  Biso 1.000000     N
    N   1.0     0.920612     0.153319     0.940692  Biso 1.000000     N
    N   1.0     0.150802     0.572787     0.461959  Biso 1.000000     N
    N   1.0     0.241565     0.555871     0.596052  Biso 1.000000     N
    N   1.0     0.094954     0.528233     0.529675  Biso 1.000000     N
    N   1.0     0.469937     0.041890     0.749432  Biso 1.000000     N
    N   1.0     0.323867     0.003096     0.689973  Biso 1.000000     N
    N   1.0     0.425109    -0.014321     0.816643  Biso 1.000000     N
    N   1.0     0.562305     0.911484     0.919088  Biso 1.000000     N
    N   1.0     0.716241     0.834947     0.879224  Biso 1.000000     N
    N   1.0     0.692104    -0.063774     0.839850  Biso 1.000000     N
    N   1.0     0.946956     0.091011     0.182710  Biso 1.000000     N
    N   1.0     0.803299     0.945057     0.193641  Biso 1.000000     N
    N   1.0     0.273387     0.602911     0.256036  Biso 1.000000     N
    N   1.0     0.143111     0.799931     0.368840  Biso 1.000000     N
    N   1.0     0.192091     0.872950     0.324492  Biso 1.000000     N
    N   1.0     0.141896     0.930534     0.468834  Biso 1.000000     N
    N   1.0     0.561235     0.148530     0.942708  Biso 1.000000     N
    N   1.0     0.578126     0.317971     0.114166  Biso 1.000000     N
    N   1.0     0.552827     0.172563     0.045913  Biso 1.000000     N
    N   1.0     0.048923     0.481154     0.261147  Biso 1.000000     N
    N   1.0     0.033228     0.328999     0.200730  Biso 1.000000     N
    N   1.0     0.022684     0.419868     0.334602  Biso 1.000000     N
    N   1.0     0.912531     0.635913     0.427951  Biso 1.000000     N
    N   1.0     0.821254     0.781230     0.385380  Biso 1.000000     N
    N   1.0    -0.066691     0.684556     0.363272  Biso 1.000000     N
    N   1.0    -0.035635     0.908335     0.620424  Biso 1.000000     N
    N   1.0     0.868250     0.838250     0.649921  Biso 1.000000     N
    N   1.0     0.326399     0.677110     0.219437  Biso 1.000000     N
    N   1.0     0.112649     0.782005     0.111392  Biso 1.000000     N
    N   1.0     0.050038     0.722701     0.158673  Biso 1.000000     N
    N   1.0    -0.027905     0.779102     0.024881  Biso 1.000000     N
    N   1.0     0.762349     0.362175     0.496212  Biso 1.000000     N
    N   1.0     0.691610     0.396676     0.353418  Biso 1.000000     N
    N   1.0     0.832042     0.402741     0.439111  Biso 1.000000     N
    N   1.0     0.425394     0.903683     0.217991  Biso 1.000000     N
    N   1.0     0.573221     0.932227     0.282150  Biso 1.000000     N
    N   1.0     0.465647     0.975457     0.163345  Biso 1.000000     N
    N   1.0     0.332182     0.044174     0.055284  Biso 1.000000     N
    N   1.0     0.172280     0.107726     0.089635  Biso 1.000000     N
    N   1.0     0.199979     0.000000     0.125845  Biso 1.000000     N
    N   1.0    -0.056692     0.844697     0.789621  Biso 1.000000     N
    N   1.0     0.091655    -0.011580     0.775642  Biso 1.000000     N
    N   1.0     0.488709     0.427825     0.715785  Biso 1.000000     N
    N   1.0     0.435971     0.537425     0.237800  Biso 1.000000     N
   Cd   1.0     0.807906     0.290134     0.652721  Biso 1.000000    Cd
   Cd   1.0     0.727195     0.933852     0.354584  Biso 1.000000    Cd
   Cd   1.0     0.627051     0.101946     0.786520  Biso 1.000000    Cd
   Cd   1.0     0.013121     0.189974     0.110123  Biso 1.000000    Cd
   Cd   1.0     0.100388     0.640727     0.306576  Biso 1.000000    Cd
   Cd   1.0     0.175252    -0.009328     0.613784  Biso 1.000000    Cd
   Cd   1.0     0.266177     0.843477     0.172136  Biso 1.000000    Cd
   Cd   1.0     0.872788     0.746886     0.859432  Biso 1.000000    Cd
   Cd   1.0     0.389476     0.587314     0.681921  Biso 1.000000    Cd
   Cd   1.0     0.606688     0.458657     0.209230  Biso 1.000000    Cd
   Cd   1.0     0.512836     0.012112     0.009454  Biso 1.000000    Cd
   Cd   1.0    -0.056603     0.466808     0.488931  Biso 1.000000    Cd
