#======================================================================

# CRYSTAL DATA

#----------------------------------------------------------------------

data_VESTA_phase_1


_pd_phase_name                         MOF
_cell_length_a                         11.89000
_cell_length_b                         14.94800
_cell_length_c                         16.32100
_cell_angle_alpha                      90.04200
_cell_angle_beta                       107.63600
_cell_angle_gamma                      90.44300
_symmetry_space_group_name_H-M         "P 1"
_symmetry_Int_Tables_number            1

loop_
_symmetry_equiv_pos_as_xyz
   "x, y, z"

loop_
   _atom_site_label
   _atom_site_occupancy
   _atom_site_fract_x
   _atom_site_fract_y
   _atom_site_fract_z
   _atom_site_adp_type
   _atom_site_B_iso_or_equiv
   _atom_site_type_symbol
    H   1.0     0.293996     0.092835     0.521220  Biso 1.000000     H
    H   1.0     0.203680     0.092810     0.976666  Biso 1.000000     H
    H   1.0     0.293997     0.592833     0.521220  Biso 1.000000     H
    H   1.0     0.203685     0.592809     0.976666  Biso 1.000000     H
    H   1.0     0.793997     0.092834     0.521226  Biso 1.000000     H
    H   1.0     0.703687     0.092810     0.976673  Biso 1.000000     H
    H   1.0     0.794002     0.592833     0.521226  Biso 1.000000     H
    H   1.0     0.703688     0.592810     0.976673  Biso 1.000000     H
    H   1.0     0.296329     0.414997     0.023297  Biso 1.000000     H
    H   1.0     0.206017     0.414974     0.478744  Biso 1.000000     H
    H   1.0     0.296331     0.914997     0.023297  Biso 1.000000     H
    H   1.0     0.206021     0.914973     0.478744  Biso 1.000000     H
    H   1.0     0.796333     0.414998     0.023304  Biso 1.000000     H
    H   1.0     0.706021     0.414974     0.478750  Biso 1.000000     H
    H   1.0     0.796337     0.914997     0.023304  Biso 1.000000     H
    H   1.0     0.706022     0.914973     0.478750  Biso 1.000000     H
    C   1.0     0.275079     0.163837     0.511567  Biso 1.000000     C
    C   1.0     0.223609     0.163841     0.987229  Biso 1.000000     C
    C   1.0     0.275081     0.663836     0.511565  Biso 1.000000     C
    C   1.0     0.223613     0.663840     0.987231  Biso 1.000000     C
    C   1.0     0.775082     0.163837     0.511571  Biso 1.000000     C
    C   1.0     0.723615     0.163841     0.987237  Biso 1.000000     C
    C   1.0     0.775086     0.663836     0.511573  Biso 1.000000     C
    C   1.0     0.723617     0.663841     0.987236  Biso 1.000000     C
    C   1.0     0.263109     0.197311     0.071191  Biso 1.000000     C
    C   1.0     0.288647     0.217891     0.584091  Biso 1.000000     C
    C   1.0     0.263112     0.697311     0.071192  Biso 1.000000     C
    C   1.0     0.288648     0.717889     0.584090  Biso 1.000000     C
    C   1.0     0.763114     0.197312     0.071198  Biso 1.000000     C
    C   1.0     0.788650     0.217890     0.584096  Biso 1.000000     C
    C   1.0     0.763118     0.697310     0.071197  Biso 1.000000     C
    C   1.0     0.788656     0.717891     0.584097  Biso 1.000000     C
    C   1.0     0.289791     0.289263     0.084645  Biso 1.000000     C
    C   1.0     0.263272     0.309765     0.571834  Biso 1.000000     C
    C   1.0     0.289792     0.789263     0.084644  Biso 1.000000     C
    C   1.0     0.263274     0.809763     0.571835  Biso 1.000000     C
    C   1.0     0.789795     0.289264     0.084651  Biso 1.000000     C
    C   1.0     0.763277     0.309763     0.571841  Biso 1.000000     C
    C   1.0     0.789800     0.789262     0.084652  Biso 1.000000     C
    C   1.0     0.763280     0.809764     0.571840  Biso 1.000000     C
    C   1.0     0.322887     0.334248     0.171708  Biso 1.000000     C
    C   1.0     0.279279     0.376614     0.643188  Biso 1.000000     C
    C   1.0     0.322889     0.834247     0.171708  Biso 1.000000     C
    C   1.0     0.279282     0.876611     0.643189  Biso 1.000000     C
    C   1.0     0.822895     0.334248     0.171715  Biso 1.000000     C
    C   1.0     0.779286     0.376612     0.643195  Biso 1.000000     C
    C   1.0     0.822899     0.834247     0.171715  Biso 1.000000     C
    C   1.0     0.779288     0.876613     0.643193  Biso 1.000000     C
    C   1.0     0.278727     0.129767     0.141684  Biso 1.000000     C
    C   1.0     0.321061     0.172687     0.670676  Biso 1.000000     C
    C   1.0     0.278730     0.629768     0.141686  Biso 1.000000     C
    C   1.0     0.321063     0.672686     0.670676  Biso 1.000000     C
    C   1.0     0.778735     0.129769     0.141693  Biso 1.000000     C
    C   1.0     0.821068     0.172687     0.670682  Biso 1.000000     C
    C   1.0     0.778737     0.629767     0.141691  Biso 1.000000     C
    C   1.0     0.821072     0.672687     0.670682  Biso 1.000000     C
    C   1.0     0.276400     0.343967     0.012733  Biso 1.000000     C
    C   1.0     0.224932     0.343971     0.488397  Biso 1.000000     C
    C   1.0     0.276402     0.843966     0.012732  Biso 1.000000     C
    C   1.0     0.224936     0.843971     0.488399  Biso 1.000000     C
    C   1.0     0.776404     0.343968     0.012738  Biso 1.000000     C
    C   1.0     0.724937     0.343971     0.488405  Biso 1.000000     C
    C   1.0     0.776408     0.843966     0.012740  Biso 1.000000     C
    C   1.0     0.724939     0.843970     0.488403  Biso 1.000000     C
    C   1.0     0.211363     0.289917     0.415873  Biso 1.000000     C
    C   1.0     0.236900     0.310497     0.928772  Biso 1.000000     C
    C   1.0     0.211368     0.789917     0.415874  Biso 1.000000     C
    C   1.0     0.236903     0.810496     0.928771  Biso 1.000000     C
    C   1.0     0.711370     0.289918     0.415880  Biso 1.000000     C
    C   1.0     0.736906     0.310497     0.928778  Biso 1.000000     C
    C   1.0     0.711371     0.789916     0.415879  Biso 1.000000     C
    C   1.0     0.736908     0.810497     0.928779  Biso 1.000000     C
    C   1.0     0.236738     0.198044     0.428130  Biso 1.000000     C
    C   1.0     0.210217     0.218545     0.915317  Biso 1.000000     C
    C   1.0     0.236741     0.698044     0.428129  Biso 1.000000     C
    C   1.0     0.210222     0.718543     0.915318  Biso 1.000000     C
    C   1.0     0.736744     0.198045     0.428135  Biso 1.000000     C
    C   1.0     0.710226     0.218544     0.915325  Biso 1.000000     C
    C   1.0     0.736746     0.698043     0.428136  Biso 1.000000     C
    C   1.0     0.710226     0.718545     0.915324  Biso 1.000000     C
    C   1.0     0.220729     0.131194     0.356776  Biso 1.000000     C
    C   1.0     0.177119     0.173560     0.828254  Biso 1.000000     C
    C   1.0     0.220732     0.631195     0.356775  Biso 1.000000     C
    C   1.0     0.177122     0.673560     0.828254  Biso 1.000000     C
    C   1.0     0.720736     0.131196     0.356780  Biso 1.000000     C
    C   1.0     0.677128     0.173560     0.828261  Biso 1.000000     C
    C   1.0     0.720739     0.631194     0.356782  Biso 1.000000     C
    C   1.0     0.677130     0.673560     0.828261  Biso 1.000000     C
    C   1.0     0.178947     0.335121     0.329288  Biso 1.000000     C
    C   1.0     0.221280     0.378041     0.858278  Biso 1.000000     C
    C   1.0     0.178951     0.835120     0.329288  Biso 1.000000     C
    C   1.0     0.221283     0.878038     0.858277  Biso 1.000000     C
    C   1.0     0.678956     0.335122     0.329294  Biso 1.000000     C
    C   1.0     0.721288     0.378040     0.858283  Biso 1.000000     C
    C   1.0     0.678957     0.835121     0.329294  Biso 1.000000     C
    C   1.0     0.721290     0.878041     0.858285  Biso 1.000000     C
    O   1.0     0.188644     0.089968     0.150202  Biso 1.000000     O
    O   1.0     0.288346     0.091405     0.668041  Biso 1.000000     O
    O   1.0     0.188647     0.589966     0.150201  Biso 1.000000     O
    O   1.0     0.288350     0.591404     0.668042  Biso 1.000000     O
    O   1.0     0.688652     0.089968     0.150209  Biso 1.000000     O
    O   1.0     0.788351     0.091406     0.668050  Biso 1.000000     O
    O   1.0     0.688655     0.589969     0.150211  Biso 1.000000     O
    O   1.0     0.788353     0.591406     0.668049  Biso 1.000000     O
    O   1.0     0.383851     0.109190     0.187165  Biso 1.000000     O
    O   1.0     0.375223     0.214396     0.739810  Biso 1.000000     O
    O   1.0     0.383855     0.609188     0.187163  Biso 1.000000     O
    O   1.0     0.375226     0.714395     0.739809  Biso 1.000000     O
    O   1.0     0.883860     0.109189     0.187167  Biso 1.000000     O
    O   1.0     0.875237     0.214396     0.739814  Biso 1.000000     O
    O   1.0     0.883863     0.609189     0.187169  Biso 1.000000     O
    O   1.0     0.875239     0.714395     0.739815  Biso 1.000000     O
    O   1.0     0.290763     0.415169     0.169666  Biso 1.000000     O
    O   1.0     0.189255     0.414666     0.652521  Biso 1.000000     O
    O   1.0     0.290767     0.915169     0.169666  Biso 1.000000     O
    O   1.0     0.189259     0.914667     0.652520  Biso 1.000000     O
    O   1.0     0.790770     0.415169     0.169673  Biso 1.000000     O
    O   1.0     0.689263     0.414669     0.652524  Biso 1.000000     O
    O   1.0     0.790772     0.915168     0.169673  Biso 1.000000     O
    O   1.0     0.689265     0.914666     0.652526  Biso 1.000000     O
    O   1.0     0.376973     0.292883     0.240589  Biso 1.000000     O
    O   1.0     0.384601     0.398495     0.688238  Biso 1.000000     O
    O   1.0     0.376976     0.792883     0.240589  Biso 1.000000     O
    O   1.0     0.384605     0.898496     0.688237  Biso 1.000000     O
    O   1.0     0.876987     0.292884     0.240595  Biso 1.000000     O
    O   1.0     0.884609     0.398496     0.688243  Biso 1.000000     O
    O   1.0     0.876989     0.792883     0.240595  Biso 1.000000     O
    O   1.0     0.884611     0.898494     0.688244  Biso 1.000000     O
    O   1.0     0.211668     0.416401     0.331921  Biso 1.000000     O
    O   1.0     0.311363     0.417839     0.849759  Biso 1.000000     O
    O   1.0     0.211670     0.916401     0.331921  Biso 1.000000     O
    O   1.0     0.311366     0.917840     0.849761  Biso 1.000000     O
    O   1.0     0.711671     0.416403     0.331929  Biso 1.000000     O
    O   1.0     0.811370     0.417842     0.849769  Biso 1.000000     O
    O   1.0     0.711675     0.916402     0.331929  Biso 1.000000     O
    O   1.0     0.811374     0.917839     0.849767  Biso 1.000000     O
    O   1.0     0.124779     0.293413     0.260155  Biso 1.000000     O
    O   1.0     0.116155     0.398619     0.812801  Biso 1.000000     O
    O   1.0     0.124781     0.793412     0.260155  Biso 1.000000     O
    O   1.0     0.116158     0.898619     0.812802  Biso 1.000000     O
    O   1.0     0.624792     0.293413     0.260161  Biso 1.000000     O
    O   1.0     0.616163     0.398620     0.812806  Biso 1.000000     O
    O   1.0     0.624795     0.793412     0.260160  Biso 1.000000     O
    O   1.0     0.616166     0.898618     0.812805  Biso 1.000000     O
    O   1.0     0.310753     0.093142     0.347444  Biso 1.000000     O
    O   1.0     0.209245     0.092640     0.830296  Biso 1.000000     O
    O   1.0     0.310755     0.593139     0.347445  Biso 1.000000     O
    O   1.0     0.209247     0.592639     0.830296  Biso 1.000000     O
    O   1.0     0.810759     0.093141     0.347450  Biso 1.000000     O
    O   1.0     0.709250     0.092639     0.830303  Biso 1.000000     O
    O   1.0     0.810763     0.593142     0.347448  Biso 1.000000     O
    O   1.0     0.709254     0.592639     0.830304  Biso 1.000000     O
    O   1.0     0.115407     0.109313     0.311725  Biso 1.000000     O
    O   1.0     0.123028     0.214925     0.759374  Biso 1.000000     O
    O   1.0     0.115409     0.609312     0.311726  Biso 1.000000     O
    O   1.0     0.123031     0.714924     0.759374  Biso 1.000000     O
    O   1.0     0.615413     0.109312     0.311733  Biso 1.000000     O
    O   1.0     0.623042     0.214925     0.759380  Biso 1.000000     O
    O   1.0     0.615416     0.609313     0.311731  Biso 1.000000     O
    O   1.0     0.623045     0.714925     0.759380  Biso 1.000000     O
   Zn   1.0     0.250266     0.000066     0.249786  Biso 1.000000    Zn
   Zn   1.0     0.249742     0.007744     0.750178  Biso 1.000000    Zn
   Zn   1.0     0.250269     0.500065     0.249786  Biso 1.000000    Zn
   Zn   1.0     0.249745     0.507743     0.750178  Biso 1.000000    Zn
   Zn   1.0     0.750271     0.000065     0.249791  Biso 1.000000    Zn
   Zn   1.0     0.749747     0.007744     0.750184  Biso 1.000000    Zn
   Zn   1.0     0.750273     0.500064     0.249791  Biso 1.000000    Zn
   Zn   1.0     0.749749     0.507743     0.750184  Biso 1.000000    Zn
   Zn   1.0     0.000034     0.199400     0.250077  Biso 1.000000    Zn
   Zn   1.0    -0.000043     0.308409     0.749892  Biso 1.000000    Zn
   Zn   1.0     0.000037     0.699399     0.250078  Biso 1.000000    Zn
   Zn   1.0    -0.000040     0.808408     0.749892  Biso 1.000000    Zn
   Zn   1.0     0.500046     0.199400     0.250078  Biso 1.000000    Zn
   Zn   1.0     0.499969     0.308409     0.749892  Biso 1.000000    Zn
   Zn   1.0     0.500049     0.699399     0.250077  Biso 1.000000    Zn
   Zn   1.0     0.499972     0.808408     0.749892  Biso 1.000000    Zn
