#======================================================================

# CRYSTAL DATA

#----------------------------------------------------------------------

data_VESTA_phase_1


_pd_phase_name                         MOF
_cell_length_a                         14.87000
_cell_length_b                         19.11000
_cell_length_c                         30.65900
_cell_angle_alpha                      100.49300
_cell_angle_beta                       90.00000
_cell_angle_gamma                      112.89600
_symmetry_space_group_name_H-M         "P 1"
_symmetry_Int_Tables_number            1

loop_
_symmetry_equiv_pos_as_xyz
   "x, y, z"

loop_
   _atom_site_label
   _atom_site_occupancy
   _atom_site_fract_x
   _atom_site_fract_y
   _atom_site_fract_z
   _atom_site_adp_type
   _atom_site_B_iso_or_equiv
   _atom_site_type_symbol
    H   1.0     0.705771     0.330757     0.417341  Biso 1.000000     H
    H   1.0     0.394492     0.748356     0.074316  Biso 1.000000     H
    H   1.0     0.446195     0.031072     0.650180  Biso 1.000000     H
    H   1.0     0.279269     0.377144     0.671330  Biso 1.000000     H
    H   1.0     0.804517     0.299162     0.767897  Biso 1.000000     H
    H   1.0     0.950831     0.259893     0.728089  Biso 1.000000     H
    H   1.0     0.598102     0.041069     0.142788  Biso 1.000000     H
    H   1.0     0.167827     0.294158     0.221147  Biso 1.000000     H
    H   1.0     0.756672     0.384035     0.826275  Biso 1.000000     H
    H   1.0     0.496916     0.163989     0.729771  Biso 1.000000     H
    H   1.0     0.339617     0.202541     0.592590  Biso 1.000000     H
    H   1.0     0.575911     0.342798     0.467460  Biso 1.000000     H
    H   1.0     0.237425     0.633534     0.075245  Biso 1.000000     H
    H   1.0     0.678944     0.991776     0.583534  Biso 1.000000     H
    H   1.0     0.878827     0.213871     0.084811  Biso 1.000000     H
    H   1.0     0.633238     0.563795     0.432588  Biso 1.000000     H
    H   1.0     0.350142     0.737087     0.581376  Biso 1.000000     H
    H   1.0     0.063711     0.090637     0.628452  Biso 1.000000     H
    H   1.0     0.889720     0.298031     0.028889  Biso 1.000000     H
    H   1.0     0.345555     0.465917     0.617190  Biso 1.000000     H
    H   1.0     0.784537     0.530127     0.889572  Biso 1.000000     H
    H   1.0     0.169876     0.595169     0.949479  Biso 1.000000     H
    H   1.0     0.325993     0.000000     0.076827  Biso 1.000000     H
    H   1.0     0.643974     0.398513     0.316992  Biso 1.000000     H
    H   1.0     0.102247     0.388135     0.164423  Biso 1.000000     H
    H   1.0     0.760246     0.542581     0.383188  Biso 1.000000     H
    H   1.0     0.414234     0.286445     0.536700  Biso 1.000000     H
    H   1.0     0.388269     0.724767     0.446772  Biso 1.000000     H
    H   1.0     0.354641     0.897497     0.025806  Biso 1.000000     H
    H   1.0     0.180505     0.070518     0.116768  Biso 1.000000     H
    H   1.0     0.805017     0.263544     0.285249  Biso 1.000000     H
    H   1.0     0.330086     0.711033     0.953993  Biso 1.000000     H
    H   1.0     0.126292     0.477173     0.110306  Biso 1.000000     H
    H   1.0     0.118759     0.283696     0.727991  Biso 1.000000     H
    H   1.0     0.892897     0.059256     0.624048  Biso 1.000000     H
    H   1.0     0.322465     0.270552     0.221267  Biso 1.000000     H
    H   1.0     0.390859     0.621530     0.582319  Biso 1.000000     H
    H   1.0     0.627624     0.957177     0.090055  Biso 1.000000     H
    H   1.0     0.544202     0.887025     0.532597  Biso 1.000000     H
    H   1.0     0.030589     0.101705     0.121152  Biso 1.000000     H
    H   1.0     0.933044     0.551371     0.938819  Biso 1.000000     H
    H   1.0     0.431146     0.608204     0.442278  Biso 1.000000     H
    H   1.0     0.332308     0.947825     0.597445  Biso 1.000000     H
    H   1.0     0.511030     0.313044     0.258742  Biso 1.000000     H
    H   1.0     0.767234     0.333071     0.976311  Biso 1.000000     H
    H   1.0     0.460658     0.252402     0.791865  Biso 1.000000     H
    H   1.0     0.625201     0.320865     0.926195  Biso 1.000000     H
    H   1.0     0.680323     0.174564     0.223261  Biso 1.000000     H
    H   1.0     0.160766     0.859276     0.368077  Biso 1.000000     H
    H   1.0     0.251532     0.875716     0.682669  Biso 1.000000     H
    H   1.0     0.446817     0.668692     0.793741  Biso 1.000000     H
    H   1.0     0.219043     0.248839     0.878058  Biso 1.000000     H
    H   1.0     0.972118     0.077317     0.761368  Biso 1.000000     H
    H   1.0     0.943629     0.749579     0.585742  Biso 1.000000     H
    H   1.0     0.778955     0.881281     0.619011  Biso 1.000000     H
    H   1.0     0.909153     0.155517     0.320623  Biso 1.000000     H
    H   1.0     0.078696     0.980412     0.174730  Biso 1.000000     H
    H   1.0     0.878987     0.814219     0.486117  Biso 1.000000     H
    H   1.0     0.186639     0.419896     0.456954  Biso 1.000000     H
    H   1.0     0.142383     0.535833     0.461606  Biso 1.000000     H
    H   1.0     0.825369     0.603146     0.521107  Biso 1.000000     H
    H   1.0     0.798785     0.615672     0.014627  Biso 1.000000     H
    H   1.0     0.334457     0.513769     0.828993  Biso 1.000000     H
    H   1.0     0.232855     0.681360     0.287956  Biso 1.000000     H
    H   1.0     0.113729     0.891516     0.112537  Biso 1.000000     H
    H   1.0     0.827611     0.764711     0.076463  Biso 1.000000     H
    H   1.0     0.227521     0.410310     0.964375  Biso 1.000000     H
    H   1.0     0.781133     0.850114     0.134985  Biso 1.000000     H
    H   1.0     0.499830     0.029429     0.276852  Biso 1.000000     H
    H   1.0     0.235797     0.943846     0.312529  Biso 1.000000     H
    H   1.0     0.955945     0.188176     0.813975  Biso 1.000000     H
    H   1.0     0.680986     0.060740     0.280816  Biso 1.000000     H
    H   1.0     0.406045     0.851950     0.682655  Biso 1.000000     H
    H   1.0     0.942613     0.800549     0.991742  Biso 1.000000     H
    H   1.0     0.633695     0.571261     0.980137  Biso 1.000000     H
    H   1.0     0.800561     0.788468     0.941670  Biso 1.000000     H
    H   1.0     0.470981     0.757650     0.739573  Biso 1.000000     H
    H   1.0     0.952652     0.581797     0.471898  Biso 1.000000     H
    H   1.0     0.694451     0.847488     0.874892  Biso 1.000000     H
    H   1.0     0.187270     0.525652     0.322098  Biso 1.000000     H
    H   1.0     0.379678     0.047953     0.787674  Biso 1.000000     H
    H   1.0     0.299467     0.770694     0.234128  Biso 1.000000     H
    H   1.0     0.116967     0.088055     0.253920  Biso 1.000000     H
    H   1.0     0.457525     0.863607     0.177012  Biso 1.000000     H
    H   1.0     0.244963     0.198128     0.306465  Biso 1.000000     H
    H   1.0     0.529535     0.016657     0.783128  Biso 1.000000     H
    H   1.0     0.177210     0.399036     0.829889  Biso 1.000000     H
    H   1.0     0.229048     0.410501     0.322840  Biso 1.000000     H
    H   1.0     0.705480     0.931595     0.818922  Biso 1.000000     H
    H   1.0     0.387922     0.526002     0.968909  Biso 1.000000     H
    H   1.0     0.000000     0.802115     0.436248  Biso 1.000000     H
    H   1.0     0.033971     0.260120     0.371364  Biso 1.000000     H
    H   1.0     0.065657     0.835090     0.644173  Biso 1.000000     H
    H   1.0     0.635720     0.887313     0.176492  Biso 1.000000     H
    H   1.0     0.247926     0.143524     0.827202  Biso 1.000000     H
    H   1.0     0.903164     0.970287     0.681165  Biso 1.000000     H
    C   1.0     0.410038     0.936500     0.052080  Biso 1.000000     C
    C   1.0     0.385419     0.382775     0.572859  Biso 1.000000     C
    C   1.0     0.801983     0.142941     0.675886  Biso 1.000000     C
    C   1.0     0.642742     0.071006     0.651841  Biso 1.000000     C
    C   1.0     0.654326     0.224602     0.744208  Biso 1.000000     C
    C   1.0     0.307666     0.358804     0.640500  Biso 1.000000     C
    C   1.0     0.649029     0.347966     0.295921  Biso 1.000000     C
    C   1.0     0.264038     0.169138     0.168350  Biso 1.000000     C
    C   1.0     0.260153     0.653663     0.044478  Biso 1.000000     C
    C   1.0     0.505881     0.185546     0.201820  Biso 1.000000     C
    C   1.0     0.860972     0.443158     0.960980  Biso 1.000000     C
    C   1.0     0.603386     0.984737     0.587389  Biso 1.000000     C
    C   1.0     0.346429     0.717509     0.044153  Biso 1.000000     C
    C   1.0     0.343166     0.261509     0.596696  Biso 1.000000     C
    C   1.0     0.453631     0.017280     0.113865  Biso 1.000000     C
    C   1.0     0.784719     0.488198     0.909446  Biso 1.000000     C
    C   1.0     0.097691     0.138167     0.142133  Biso 1.000000     C
    C   1.0     0.412442     0.634953     0.473447  Biso 1.000000     C
    C   1.0     0.566196     0.006715     0.620894  Biso 1.000000     C
    C   1.0     0.014531     0.445645     0.033301  Biso 1.000000     C
    C   1.0     0.701138     0.334390     0.804579  Biso 1.000000     C
    C   1.0     0.436536     0.537146     0.511335  Biso 1.000000     C
    C   1.0     0.000000     0.394212     0.065518  Biso 1.000000     C
    C   1.0     0.063808     0.235498     0.704979  Biso 1.000000     C
    C   1.0     0.411711     0.605128     0.511927  Biso 1.000000     C
    C   1.0     0.647268     0.511383     0.429650  Biso 1.000000     C
    C   1.0     0.384455     0.308032     0.566054  Biso 1.000000     C
    C   1.0     0.354886     0.154115     0.168708  Biso 1.000000     C
    C   1.0     0.562644     0.970183     0.088234  Biso 1.000000     C
    C   1.0     0.695298     0.370474     0.929778  Biso 1.000000     C
    C   1.0     0.302786     0.685968     0.983043  Biso 1.000000     C
    C   1.0     0.426767     0.434045     0.540599  Biso 1.000000     C
    C   1.0     0.394327     0.995403     0.080521  Biso 1.000000     C
    C   1.0     0.945759     0.453611     0.990607  Biso 1.000000     C
    C   1.0     0.594725     0.454276     0.453476  Biso 1.000000     C
    C   1.0     0.727699     0.287567     0.771759  Biso 1.000000     C
    C   1.0     0.214903     0.622154     0.980751  Biso 1.000000     C
    C   1.0     0.934384     0.272815     0.089102  Biso 1.000000     C
    C   1.0     0.575598     0.300846     0.263180  Biso 1.000000     C
    C   1.0     0.539362     0.003891     0.117541  Biso 1.000000     C
    C   1.0     0.717157     0.500060     0.402529  Biso 1.000000     C
    C   1.0     0.174806     0.246149     0.198045  Biso 1.000000     C
    C   1.0     0.345659     0.408059     0.610918  Biso 1.000000     C
    C   1.0     0.682447     0.173978     0.709318  Biso 1.000000     C
    C   1.0     0.068295     0.419325     0.103824  Biso 1.000000     C
    C   1.0     0.389563     0.642204     0.551632  Biso 1.000000     C
    C   1.0     0.940495     0.319478     0.058446  Biso 1.000000     C
    C   1.0     0.520559     0.464901     0.483157  Biso 1.000000     C
    C   1.0     0.773338     0.377662     0.957561  Biso 1.000000     C
    C   1.0     0.535710     0.260341     0.785280  Biso 1.000000     C
    C   1.0     0.943254     0.109833     0.647183  Biso 1.000000     C
    C   1.0     0.866072     0.499543     0.936486  Biso 1.000000     C
    C   1.0     0.180533     0.120931     0.139996  Biso 1.000000     C
    C   1.0     0.389199     0.699157     0.475732  Biso 1.000000     C
    C   1.0     0.738606     0.272096     0.278097  Biso 1.000000     C
    C   1.0     0.441929     0.081893     0.144769  Biso 1.000000     C
    C   1.0     0.907889     0.158114     0.675429  Biso 1.000000     C
    C   1.0     0.615472     0.388036     0.449295  Biso 1.000000     C
    C   1.0     0.033029     0.127190     0.649321  Biso 1.000000     C
    C   1.0     0.686334     0.380931     0.421478  Biso 1.000000     C
    C   1.0     0.259909     0.232718     0.198056  Biso 1.000000     C
    C   1.0     0.975586     0.221942     0.704992  Biso 1.000000     C
    C   1.0     0.056165     0.369924     0.133401  Biso 1.000000     C
    C   1.0     0.467265    -0.006202     0.624783  Biso 1.000000     C
    C   1.0     0.410181     0.960445     0.595502  Biso 1.000000     C
    C   1.0     0.108372     0.548592     0.004059  Biso 1.000000     C
    C   1.0     0.556257     0.211348     0.751035  Biso 1.000000     C
    C   1.0     0.584982     0.236695     0.236463  Biso 1.000000     C
    C   1.0     0.528342     0.926145     0.559000  Biso 1.000000     C
    C   1.0     0.669032     0.222772     0.243936  Biso 1.000000     C
    C   1.0     0.367989     0.706452     0.551312  Biso 1.000000     C
    C   1.0     0.201485     0.616279     0.004652  Biso 1.000000     C
    C   1.0     0.679168     0.989001     0.229241  Biso 1.000000     C
    C   1.0     0.868368     0.645457     0.501629  Biso 1.000000     C
    C   1.0     0.857752     0.860527     0.131479  Biso 1.000000     C
    C   1.0     0.225919     0.429220     0.859931  Biso 1.000000     C
    C   1.0     0.270233     0.788570     0.264808  Biso 1.000000     C
    C   1.0     0.794228     0.744094     0.960626  Biso 1.000000     C
    C   1.0     0.163588     0.209606     0.851867  Biso 1.000000     C
    C   1.0     0.558851     0.700078     0.870642  Biso 1.000000     C
    C   1.0     0.314033     0.913338     0.705958  Biso 1.000000     C
    C   1.0     0.379672    -0.002309     0.764309  Biso 1.000000     C
    C   1.0     0.068511     0.960704     0.702096  Biso 1.000000     C
    C   1.0     0.938410     0.634085     0.474636  Biso 1.000000     C
    C   1.0     0.904085     0.972917     0.194705  Biso 1.000000     C
    C   1.0    -0.002660     0.112955     0.283226  Biso 1.000000     C
    C   1.0     0.000000     0.846551     0.640036  Biso 1.000000     C
    C   1.0     0.937632     0.799402     0.607198  Biso 1.000000     C
    C   1.0     0.342339     0.499654     0.937754  Biso 1.000000     C
    C   1.0     0.139157     0.608438     0.392990  Biso 1.000000     C
    C   1.0     0.167189     0.185831     0.308491  Biso 1.000000     C
    C   1.0     0.883587     0.813360     0.098573  Biso 1.000000     C
    C   1.0     0.191370     0.838173     0.338867  Biso 1.000000     C
    C   1.0     0.096160     0.125529     0.279298  Biso 1.000000     C
    C   1.0     0.649734     0.872735     0.814698  Biso 1.000000     C
    C   1.0     0.020518     0.114678     0.786573  Biso 1.000000     C
    C   1.0     0.191276     0.763698     0.332060  Biso 1.000000     C
    C   1.0     0.187719     0.504343     0.352627  Biso 1.000000     C
    C   1.0     0.872285     0.751213     0.988374  Biso 1.000000     C
    C   1.0     0.512676     0.911730     0.199981  Biso 1.000000     C
    C   1.0     0.630423     0.010239     0.257704  Biso 1.000000     C
    C   1.0     0.010739     0.175375     0.815802  Biso 1.000000     C
    C   1.0     0.931574     0.922220     0.159582  Biso 1.000000     C
    C   1.0     0.312268     0.493011     0.859638  Biso 1.000000     C
    C   1.0     0.118322     0.036993     0.759384  Biso 1.000000     C
    C   1.0     0.000000     0.909735     0.667258  Biso 1.000000     C
    C   1.0     0.505004     0.726451     0.800154  Biso 1.000000     C
    C   1.0     0.219151     0.991859     0.735480  Biso 1.000000     C
    C   1.0     0.969790     0.757076     0.454554  Biso 1.000000     C
    C   1.0     0.990872     0.691031     0.450701  Biso 1.000000     C
    C   1.0     0.915326     0.922801     0.660134  Biso 1.000000     C
    C   1.0     0.049576     0.220779     0.345006  Biso 1.000000     C
    C   1.0     0.462465    -0.019606     0.762081  Biso 1.000000     C
    C   1.0     0.984588     0.162232     0.316717  Biso 1.000000     C
    C   1.0     0.898747     0.764222     0.482218  Biso 1.000000     C
    C   1.0     0.054987     0.680529     0.421189  Biso 1.000000     C
    C   1.0     0.464910     0.597187     0.899911  Biso 1.000000     C
    C   1.0     0.162304     0.509864     0.430519  Biso 1.000000     C
    C   1.0     0.782277     0.634078     0.000000  Biso 1.000000     C
    C   1.0     0.232856     0.885047     0.308422  Biso 1.000000     C
    C   1.0     0.149607     0.712056     0.364091  Biso 1.000000     C
    C   1.0     0.700904     0.622821     0.982241  Biso 1.000000     C
    C   1.0     0.106443     0.101552     0.790253  Biso 1.000000     C
    C   1.0     0.164078     0.540470     0.392257  Biso 1.000000     C
    C   1.0     0.371707     0.529576     0.899327  Biso 1.000000     C
    C   1.0     0.530316    -0.007083     0.255812  Biso 1.000000     C
    C   1.0     0.517214     0.775812     0.770546  Biso 1.000000     C
    C   1.0     0.611207     0.925254     0.199725  Biso 1.000000     C
    C   1.0     0.186293     0.445995     0.428141  Biso 1.000000     C
    C   1.0     0.254352     0.435923     0.935446  Biso 1.000000     C
    C   1.0     0.846041     0.873477     0.625869  Biso 1.000000     C
    C   1.0     0.399067     0.899822     0.705886  Biso 1.000000     C
    C   1.0     0.706275     0.678958     0.957506  Biso 1.000000     C
    C   1.0     0.209897     0.440349     0.352831  Biso 1.000000     C
    C   1.0     0.930835     0.048770     0.252327  Biso 1.000000     C
    C   1.0     0.621441     0.668628     0.927942  Biso 1.000000     C
    C   1.0     0.309915     0.976739     0.735844  Biso 1.000000     C
    C   1.0     0.179439     0.150678     0.823516  Biso 1.000000     C
    C   1.0     0.019032     0.934006     0.153112  Biso 1.000000     C
    C   1.0     0.785031     0.000000     0.228526  Biso 1.000000     C
    C   1.0     0.232069     0.738999     0.294204  Biso 1.000000     C
    C   1.0     0.569448     0.751487     0.838403  Biso 1.000000     C
    C   1.0     0.643546     0.826102     0.845382  Biso 1.000000     C
    C   1.0     0.038886     0.884725     0.118784  Biso 1.000000     C
    N   1.0     0.736351     0.435735     0.398222  Biso 1.000000     N
    N   1.0     0.606910     0.321013     0.811708  Biso 1.000000     N
    N   1.0     0.021144     0.511613     0.987226  Biso 1.000000     N
    N   1.0     0.402193     0.495174     0.542927  Biso 1.000000     N
    N   1.0     0.376301     0.744600     0.006679  Biso 1.000000     N
    N   1.0     0.359065     0.093610     0.139842  Biso 1.000000     N
    N   1.0     0.996122     0.297397     0.126181  Biso 1.000000     N
    N   1.0     0.305392     0.286250     0.633517  Biso 1.000000     N
    N   1.0     0.611528     0.113571     0.683279  Biso 1.000000     N
    N   1.0     0.728941     0.333783     0.303790  Biso 1.000000     N
    N   1.0     0.427441     0.203349     0.198901  Biso 1.000000     N
    N   1.0     0.094633     0.200143     0.170464  Biso 1.000000     N
    N   1.0     0.100465     0.506539     0.035638  Biso 1.000000     N
    N   1.0     0.700610     0.424525     0.905848  Biso 1.000000     N
    N   1.0     0.366883     0.734252     0.513953  Biso 1.000000     N
    N   1.0     0.516026     0.124728     0.176031  Biso 1.000000     N
    N   1.0     0.737303     0.082725     0.646838  Biso 1.000000     N
    N   1.0     0.778680     0.191762     0.706395  Biso 1.000000     N
    N   1.0     0.947486     0.429113     0.004802  Biso 1.000000     N
    N   1.0     0.487338     0.417142     0.512059  Biso 1.000000     N
    N   1.0     0.433299     0.913812     0.562931  Biso 1.000000     N
    N   1.0     0.492439     0.923662     0.055810  Biso 1.000000     N
    N   1.0     0.493267     0.523133     0.479784  Biso 1.000000     N
    N   1.0     0.098037     0.189372     0.677538  Biso 1.000000     N
    N   1.0     0.587841     0.848228     0.777677  Biso 1.000000     N
    N   1.0     0.961654     0.006131     0.220732  Biso 1.000000     N
    N   1.0     0.472801     0.639336     0.868382  Biso 1.000000     N
    N   1.0     0.836373     0.037199     0.257531  Biso 1.000000     N
    N   1.0     0.848959     0.709647     0.505649  Biso 1.000000     N
    N   1.0     0.210257     0.411927     0.390022  Biso 1.000000     N
    N   1.0     0.535666     0.610704     0.931356  Biso 1.000000     N
    N   1.0     0.174047     0.650843     0.361634  Biso 1.000000     N
    N   1.0     0.977586     0.825163     0.091896  Biso 1.000000     N
    N   1.0     0.883239     0.720745    -0.002125  Biso 1.000000     N
    N   1.0     0.044488    -0.005636     0.727958  Biso 1.000000     N
    N   1.0     0.081000     0.222177     0.848141  Biso 1.000000     N
    N   1.0     0.146899     0.942883     0.705092  Biso 1.000000     N
    N   1.0     0.088774     0.728708     0.392552  Biso 1.000000     N
    N   1.0     0.144536     0.232820     0.341027  Biso 1.000000     N
    N   1.0     0.271641     0.860861     0.271796  Biso 1.000000     N
    N   1.0     0.479172     0.945590     0.733561  Biso 1.000000     N
    N   1.0     0.196686     0.401387     0.897255  Biso 1.000000     N
    N   1.0     0.636303     0.716458     0.899067  Biso 1.000000     N
    N   1.0     0.201067     0.025165     0.764460  Biso 1.000000     N
    N   1.0     0.807948     0.955309     0.197840  Biso 1.000000     N
    N   1.0     0.856840     0.812664     0.599738  Biso 1.000000     N
    N   1.0     0.081957     0.622080     0.424411  Biso 1.000000     N
    N   1.0     0.478727     0.957807     0.227634  Biso 1.000000     N
   Zn   1.0     0.979857     0.228690     0.174591  Biso 1.000000    Zn
   Zn   1.0     0.580178     0.402640     0.860546  Biso 1.000000    Zn
   Zn   1.0     0.512439     0.836677     0.009503  Biso 1.000000    Zn
   Zn   1.0     0.325491     0.827711     0.516807  Biso 1.000000    Zn
   Zn   1.0     0.836187     0.415079     0.353232  Biso 1.000000    Zn
   Zn   1.0     0.251729     0.217927     0.681940  Biso 1.000000    Zn
   Zn   1.0     0.000000     0.742704     0.043269  Biso 1.000000    Zn
   Zn   1.0     0.749889     0.730920     0.550594  Biso 1.000000    Zn
   Zn   1.0     0.604008     0.916986     0.729281  Biso 1.000000    Zn
   Zn   1.0     0.325153     0.929427     0.223629  Biso 1.000000    Zn
   Zn   1.0     0.060646     0.309127     0.894350  Biso 1.000000    Zn
   Zn   1.0     0.253389     0.319236     0.387015  Biso 1.000000    Zn
    I   1.0     0.429577     0.330873     0.899874  Biso 1.000000     I
    I   1.0     0.631697     0.797050     0.050420  Biso 1.000000     I
    I   1.0     0.621698     0.521179     0.824856  Biso 1.000000     I
    I   1.0     0.513655     0.854012     0.948695  Biso 1.000000     I
    I   1.0     0.315974     0.311346     0.757348  Biso 1.000000     I
    I   1.0     0.349876     0.868157     0.441259  Biso 1.000000     I
    I   1.0     0.828904     0.102495     0.146513  Biso 1.000000     I
    I   1.0     0.914391     0.534955     0.318805  Biso 1.000000     I
    I   1.0     0.166387     0.790775     0.557699  Biso 1.000000     I
    I   1.0     0.275790     0.091257     0.654303  Biso 1.000000     I
    I   1.0     0.000000     0.322054     0.250020  Biso 1.000000     I
    I   1.0     0.914732     0.342855     0.392385  Biso 1.000000     I
    I   1.0     0.575465     0.823642     0.653863  Biso 1.000000     I
    I   1.0     0.260291     0.836298     0.148083  Biso 1.000000     I
    I   1.0     0.411385     0.356302     0.345605  Biso 1.000000     I
    I   1.0     0.288077     0.029316     0.251293  Biso 1.000000     I
    I   1.0     0.043115     0.268342     0.969815  Biso 1.000000     I
    I   1.0     0.144162     0.814087     0.004058  Biso 1.000000     I
    I   1.0     0.741532     0.016071     0.757334  Biso 1.000000     I
    I   1.0     0.671491     0.611699     0.585595  Biso 1.000000     I
    I   1.0     0.951224     0.348071     0.853321  Biso 1.000000     I
    I   1.0     0.228884     0.278203     0.462417  Biso 1.000000     I
    I   1.0     0.670476     0.802209     0.511073  Biso 1.000000     I
    I   1.0     0.962071     0.624594     0.079291  Biso 1.000000     I
