#======================================================================

# CRYSTAL DATA

#----------------------------------------------------------------------

data_VESTA_phase_1


_pd_phase_name                         MOF
_cell_length_a                         13.48600
_cell_length_b                         16.09800
_cell_length_c                         15.74200
_cell_angle_alpha                      91.70400
_cell_angle_beta                       115.79400
_cell_angle_gamma                      89.89900
_symmetry_space_group_name_H-M         "P 1"
_symmetry_Int_Tables_number            1

loop_
_symmetry_equiv_pos_as_xyz
   "x, y, z"

loop_
   _atom_site_label
   _atom_site_occupancy
   _atom_site_fract_x
   _atom_site_fract_y
   _atom_site_fract_z
   _atom_site_adp_type
   _atom_site_B_iso_or_equiv
   _atom_site_type_symbol
    H   1.0     0.163025     0.858785     0.417443  Biso 1.000000     H
    H   1.0     0.708609     0.768700     0.179596  Biso 1.000000     H
    H   1.0     0.938575     0.800013     0.619807  Biso 1.000000     H
    H   1.0     0.611311     0.079511     0.937583  Biso 1.000000     H
    H   1.0     0.501841     0.682553     0.638058  Biso 1.000000     H
    H   1.0     0.564137     0.781938     0.116607  Biso 1.000000     H
    H   1.0     0.645929     0.667282     0.694076  Biso 1.000000     H
    H   1.0     0.013797     0.417100     0.969707  Biso 1.000000     H
    H   1.0     0.903785     0.972273     0.421488  Biso 1.000000     H
    H   1.0     0.537127     0.903860     0.386075  Biso 1.000000     H
    H   1.0     0.873130     0.467336     0.048943  Biso 1.000000     H
    H   1.0     0.655228     0.857657     0.109509  Biso 1.000000     H
    H   1.0     0.483666     0.530833     0.265782  Biso 1.000000     H
    H   1.0     0.085210     0.052032     0.314140  Biso 1.000000     H
    H   1.0     0.681251     0.297634     0.622524  Biso 1.000000     H
    H   1.0     0.770406     0.445986     0.685798  Biso 1.000000     H
    H   1.0     0.140548     0.147980     0.487168  Biso 1.000000     H
    H   1.0     0.747359     0.642098     0.586800  Biso 1.000000     H
    H   1.0     0.031869     0.015573     0.654151  Biso 1.000000     H
    H   1.0     0.859458     0.852016     0.512823  Biso 1.000000     H
    H   1.0     0.368605     0.757425     0.487974  Biso 1.000000     H
    H   1.0     0.512818     0.036803     0.158853  Biso 1.000000     H
    H   1.0     0.318824     0.323116     0.603093  Biso 1.000000     H
    H   1.0     0.518667     0.470709     0.422312  Biso 1.000000     H
    H   1.0     0.096222     0.027723     0.578504  Biso 1.000000     H
    H   1.0     0.120551     0.256746     0.489681  Biso 1.000000     H
    H   1.0     0.487189     0.963195     0.841144  Biso 1.000000     H
    H   1.0     0.221746     0.938361     0.333852  Biso 1.000000     H
    H   1.0     0.673696     0.418933     0.061216  Biso 1.000000     H
    H   1.0     0.413990     0.438308     0.207048  Biso 1.000000     H
    H   1.0     0.586017     0.561687     0.792948  Biso 1.000000     H
    H   1.0     0.779325     0.031466     0.264335  Biso 1.000000     H
    H   1.0     0.692066     0.507621     0.401906  Biso 1.000000     H
    H   1.0     0.351955     0.466626     0.839870  Biso 1.000000     H
    H   1.0     0.956145     0.915462     0.968206  Biso 1.000000     H
    H   1.0     0.481341     0.529286     0.577684  Biso 1.000000     H
    H   1.0     0.046212     0.165539     0.693118  Biso 1.000000     H
    H   1.0     0.836981     0.141210     0.582549  Biso 1.000000     H
    H   1.0     0.149406     0.595494     0.613803  Biso 1.000000     H
    H   1.0     0.354080     0.332713     0.305920  Biso 1.000000     H
    H   1.0     0.914796     0.947969     0.685854  Biso 1.000000     H
    H   1.0     0.252647     0.357898     0.413193  Biso 1.000000     H
    H   1.0     0.468720     0.270441     0.178116  Biso 1.000000     H
    H   1.0     0.229602     0.554009     0.314192  Biso 1.000000     H
    H   1.0     0.864021     0.818728     0.360178  Biso 1.000000     H
    H   1.0     0.886918     0.558641     0.665015  Biso 1.000000     H
    H   1.0     0.778264     0.061642     0.666143  Biso 1.000000     H
    H   1.0     0.498168     0.317443     0.361939  Biso 1.000000     H
    H   1.0     0.344776     0.142336     0.890485  Biso 1.000000     H
    H   1.0     0.061431     0.199987     0.380188  Biso 1.000000     H
    H   1.0     0.326302     0.581065     0.938775  Biso 1.000000     H
    H   1.0     0.220680     0.968528     0.735657  Biso 1.000000     H
    H   1.0     0.377500     0.482761     0.346340  Biso 1.000000     H
    H   1.0     0.290770     0.991514     0.599699  Biso 1.000000     H
    H   1.0     0.714544     0.178206     0.392628  Biso 1.000000     H
    H   1.0     0.531290     0.729555     0.821879  Biso 1.000000     H
    H   1.0     0.546937     0.640692     0.891543  Biso 1.000000     H
    H   1.0     0.655259     0.351286     0.517299  Biso 1.000000     H
    H   1.0     0.968136     0.984421     0.345839  Biso 1.000000     H
    H   1.0     0.709237     0.008482     0.400295  Biso 1.000000     H
    H   1.0     0.113092     0.441353     0.334975  Biso 1.000000     H
    H   1.0     0.879457     0.743250     0.510316  Biso 1.000000     H
    H   1.0     0.824882     0.031806     0.950507  Biso 1.000000     H
    H   1.0     0.285462     0.821790     0.607365  Biso 1.000000     H
    H   1.0     0.462881     0.096137     0.613922  Biso 1.000000     H
    H   1.0     0.435868     0.218055     0.883390  Biso 1.000000     H
    H   1.0     0.175125     0.968194     0.049487  Biso 1.000000     H
    H   1.0     0.790911     0.938822     0.206373  Biso 1.000000     H
    H   1.0     0.622508     0.517234     0.653657  Biso 1.000000     H
    H   1.0     0.209093     0.061171     0.793619  Biso 1.000000     H
    H   1.0     0.318754     0.702361     0.377473  Biso 1.000000     H
    H   1.0     0.344748     0.648709     0.482699  Biso 1.000000     H
    H   1.0     0.516340     0.469163     0.734213  Biso 1.000000     H
    H   1.0     0.986205     0.582900     0.030286  Biso 1.000000     H
    H   1.0     0.388695     0.920488     0.062413  Biso 1.000000     H
    H   1.0     0.307941     0.492376     0.598090  Biso 1.000000     H
    H   1.0     0.291396     0.231294     0.820400  Biso 1.000000     H
    H   1.0     0.449128     0.717431     0.883524  Biso 1.000000     H
    H   1.0     0.648043     0.533372     0.160121  Biso 1.000000     H
    H   1.0     0.550879     0.282568     0.116469  Biso 1.000000     H
    H   1.0     0.631402     0.242570     0.512024  Biso 1.000000     H
    H   1.0     0.043859     0.084535     0.031787  Biso 1.000000     H
    H   1.0     0.953793     0.834455     0.306876  Biso 1.000000     H
    H   1.0     0.681178     0.676881     0.396899  Biso 1.000000     H
    H   1.0     0.850601     0.404504     0.386191  Biso 1.000000     H
    H   1.0     0.126874     0.532663     0.951050  Biso 1.000000     H
    H   1.0     0.453069     0.359304     0.108453  Biso 1.000000     H
    H   1.0     0.135984     0.181267     0.639816  Biso 1.000000     H
    C   1.0     0.549052     0.553017     0.643738  Biso 1.000000     C
    C   1.0     0.023158     0.816290     0.535675  Biso 1.000000     C
    C   1.0     0.156208     0.987561     0.107627  Biso 1.000000     C
    C   1.0     0.625988     0.301346     0.547197  Biso 1.000000     C
    C   1.0     0.431242     0.354634     0.364745  Biso 1.000000     C
    C   1.0     0.486122     0.564340     0.055827  Biso 1.000000     C
    C   1.0     0.053979     0.073522     0.170740  Biso 1.000000     C
    C   1.0     0.512106     0.315586     0.535911  Biso 1.000000     C
    C   1.0     0.332305     0.343248     0.469163  Biso 1.000000     C
    C   1.0     0.568767     0.645361     0.635251  Biso 1.000000     C
    C   1.0     0.065749     0.143857     0.635334  Biso 1.000000     C
    C   1.0     0.527652     0.368207     0.882736  Biso 1.000000     C
    C   1.0     0.204445     0.945103     0.192229  Biso 1.000000     C
    C   1.0     0.450956     0.446978     0.356258  Biso 1.000000     C
    C   1.0     0.374018     0.698649     0.452801  Biso 1.000000     C
    C   1.0     0.472346     0.631792     0.117255  Biso 1.000000     C
    C   1.0     0.670601     0.954652     0.354915  Biso 1.000000     C
    C   1.0     0.355485     0.866129     0.885595  Biso 1.000000     C
    C   1.0     0.883691     0.426513     0.830017  Biso 1.000000     C
    C   1.0     0.894442    -0.033035     0.743306  Biso 1.000000     C
    C   1.0     0.087467     0.471946     0.268022  Biso 1.000000     C
    C   1.0     0.049458     0.512659     0.892751  Biso 1.000000     C
    C   1.0     0.634188     0.674748     0.437846  Biso 1.000000     C
    C   1.0     0.399137     0.638830     0.761846  Biso 1.000000     C
    C   1.0     0.082759     0.051785     0.097545  Biso 1.000000     C
    C   1.0     0.190415     0.635723     0.154529  Biso 1.000000     C
    C   1.0     0.034988     0.863302     0.844375  Biso 1.000000     C
    C   1.0     0.487899     0.684410     0.464085  Biso 1.000000     C
    C   1.0     0.238354     0.596614     0.652925  Biso 1.000000     C
    C   1.0     0.946026     0.926477     0.829252  Biso 1.000000     C
    C   1.0     0.795563     0.054898     0.807766  Biso 1.000000     C
    C   1.0     0.329406     0.045344     0.645080  Biso 1.000000     C
    C   1.0     0.843799     0.012438     0.892367  Biso 1.000000     C
    C   1.0     0.478277     0.463754     0.273685  Biso 1.000000     C
    C   1.0     0.987805     0.446042     0.192562  Biso 1.000000     C
    C   1.0     0.138356     0.843781     0.472180  Biso 1.000000     C
    C   1.0     0.105564     0.000000     0.256687  Biso 1.000000     C
    C   1.0     0.917246     0.948213     0.902447  Biso 1.000000     C
    C   1.0     0.506271     0.020348     0.088949  Biso 1.000000     C
    C   1.0     0.919365     0.802511     0.544770  Biso 1.000000     C
    C   1.0     0.761654     0.403384     0.347070  Biso 1.000000     C
    C   1.0     0.314981     0.545673     0.644100  Biso 1.000000     C
    C   1.0     0.950547     0.487339     0.107241  Biso 1.000000     C
    C   1.0     0.151353     0.534405     0.256670  Biso 1.000000     C
    C   1.0     0.809588     0.364276     0.845464  Biso 1.000000     C
    C   1.0     0.180449     0.970062     0.267488  Biso 1.000000     C
    C   1.0     0.685026     0.454324     0.355895  Biso 1.000000     C
    C   1.0     0.493735     0.979651     0.911048  Biso 1.000000     C
    C   1.0     0.583810     0.518435     0.089660  Biso 1.000000     C
    C   1.0     0.362939     0.139413     0.761704  Biso 1.000000     C
    C   1.0     0.912541     0.528049     0.731969  Biso 1.000000     C
    C   1.0     0.924337     0.374506     0.204429  Biso 1.000000     C
    C   1.0     0.513876     0.435658     0.944164  Biso 1.000000     C
    C   1.0     0.562798     0.044534     0.964827  Biso 1.000000     C
    C   1.0     0.934256     0.856137     0.364659  Biso 1.000000     C
    C   1.0     0.848654     0.465591     0.743321  Biso 1.000000     C
    C   1.0     0.206232     0.035518     0.727216  Biso 1.000000     C
    C   1.0     0.521730     0.536242     0.726311  Biso 1.000000     C
    C   1.0     0.437208     0.955465     0.035170  Biso 1.000000     C
    C   1.0     0.486886     0.683943     0.843708  Biso 1.000000     C
    C   1.0     0.012202     0.553954     0.807430  Biso 1.000000     C
    C   1.0     0.013677     0.551116     0.096611  Biso 1.000000     C
    C   1.0     0.976848     0.183707     0.464319  Biso 1.000000     C
    C   1.0     0.861650     0.156214     0.527813  Biso 1.000000     C
    C   1.0     0.569463     0.065339     0.054419  Biso 1.000000     C
    C   1.0     0.413754     0.097060     0.653114  Biso 1.000000     C
    C   1.0     0.597924     0.454559     0.034453  Biso 1.000000     C
    C   1.0     0.430543     0.934660     0.945578  Biso 1.000000     C
    C   1.0     0.819559     0.029939     0.732507  Biso 1.000000     C
    C   1.0     0.513122     0.316054     0.156287  Biso 1.000000     C
    C   1.0     0.116314     0.573485     0.169975  Biso 1.000000     C
    C   1.0     0.802855     0.175258     0.434858  Biso 1.000000     C
    C   1.0     0.586253     0.902936     0.346882  Biso 1.000000     C
    C   1.0     0.642509     0.814889     0.157024  Biso 1.000000     C
    C   1.0     0.905058     0.948400     0.355707  Biso 1.000000     C
    C   1.0     0.402074     0.545439     0.965538  Biso 1.000000     C
    C   1.0     0.986327     0.448883     0.903382  Biso 1.000000     C
    C   1.0     0.080641     0.197487     0.455225  Biso 1.000000     C
    C   1.0     0.719982     0.126516     0.796495  Biso 1.000000     C
    C   1.0     0.416188     0.481563     0.910331  Biso 1.000000     C
    C   1.0     0.644519     0.133870     0.114402  Biso 1.000000     C
    C   1.0     0.197151     0.824738     0.565135  Biso 1.000000     C
    C   1.0     0.280027     0.873485     0.203501  Biso 1.000000     C
    C   1.0     0.357496     0.185104     0.842972  Biso 1.000000     C
    C   1.0     0.600870     0.361168     0.238149  Biso 1.000000     C
    C   1.0     0.637066     0.860582     0.238291  Biso 1.000000     C
    C   1.0     0.667700     0.656748     0.530831  Biso 1.000000     C
    C   1.0     0.075672     0.625490     0.795563  Biso 1.000000     C
    C   1.0     0.365816     0.325248     0.562147  Biso 1.000000     C
    C   1.0     0.793773     0.964476     0.272777  Biso 1.000000     C
    C   1.0     0.094948     0.051594     0.644285  Biso 1.000000     C
    C   1.0     0.965012     0.136693     0.155615  Biso 1.000000     C
    N   1.0     0.125197     0.807863     0.603841  Biso 1.000000     N
    N   1.0     0.874810     0.192134     0.396153  Biso 1.000000     N
    N   1.0     0.566083     0.844785     0.274580  Biso 1.000000     N
    N   1.0     0.583429     0.427082     0.287037  Biso 1.000000     N
    N   1.0     0.297337     0.072652     0.713736  Biso 1.000000     N
    N   1.0     0.291135     0.654219     0.725921  Biso 1.000000     N
    N   1.0     0.477178     0.308240     0.602871  Biso 1.000000     N
    N   1.0     0.425371     0.336718     0.452981  Biso 1.000000     N
    N   1.0     0.416578     0.572914     0.712959  Biso 1.000000     N
    N   1.0     0.028160     0.838007     0.453946  Biso 1.000000     N
    N   1.0     0.433923     0.155211     0.725416  Biso 1.000000     N
    N   1.0     0.708873     0.345779     0.274073  Biso 1.000000     N
    N   1.0     0.971846     0.161988     0.546047  Biso 1.000000     N
    N   1.0     0.702669     0.927342     0.286258  Biso 1.000000     N
    N   1.0     0.574636     0.663278     0.547014  Biso 1.000000     N
    N   1.0     0.522825     0.691756     0.397123  Biso 1.000000     N
    O   1.0     0.713362     0.353814     0.779102  Biso 1.000000     O
    O   1.0     0.286642     0.646185     0.220890  Biso 1.000000     O
    O   1.0     0.538398     0.635193     0.204475  Biso 1.000000     O
    O   1.0     0.149133     0.670338     0.074825  Biso 1.000000     O
    O   1.0     0.683528     0.186687     0.077040  Biso 1.000000     O
    O   1.0     0.041697     0.656244     0.714430  Biso 1.000000     O
    O   1.0     0.316471     0.813318     0.922957  Biso 1.000000     O
    O   1.0     0.605291     0.315345     0.918935  Biso 1.000000     O
    O   1.0     0.065364     0.853603     0.778815  Biso 1.000000     O
    O   1.0     0.704782     0.152930     0.867808  Biso 1.000000     O
    O   1.0     0.461600     0.364805     0.795515  Biso 1.000000     O
    O   1.0     0.667680     0.137910     0.201844  Biso 1.000000     O
    O   1.0     0.394709     0.684655     0.081055  Biso 1.000000     O
    O   1.0     0.332329     0.862086     0.798154  Biso 1.000000     O
    O   1.0     0.958312     0.343752     0.285562  Biso 1.000000     O
    O   1.0     0.837157     0.347306     0.133185  Biso 1.000000     O
    O   1.0     0.671843     0.157819     0.715590  Biso 1.000000     O
    O   1.0     0.927480     0.172842     0.076895  Biso 1.000000     O
    O   1.0     0.072513     0.827148     0.923092  Biso 1.000000     O
    O   1.0     0.850868     0.329662     0.925168  Biso 1.000000     O
    O   1.0     0.934640     0.146395     0.221177  Biso 1.000000     O
    O   1.0     0.162851     0.652691     0.866807  Biso 1.000000     O
    O   1.0     0.328166     0.842184     0.284408  Biso 1.000000     O
    O   1.0     0.295224     0.847067     0.132188  Biso 1.000000     O
   Cd   1.0     0.187408     0.757986     0.758704  Biso 1.000000    Cd
   Cd   1.0     0.569768     0.259346     0.758186  Biso 1.000000    Cd
   Cd   1.0     0.812599     0.242012     0.241290  Biso 1.000000    Cd
   Cd   1.0     0.221469     0.749218     0.000116  Biso 1.000000    Cd
   Cd   1.0     0.430236     0.740652     0.241808  Biso 1.000000    Cd
   Cd   1.0     0.778534     0.250772    -0.000114  Biso 1.000000    Cd
