#======================================================================

# CRYSTAL DATA

#----------------------------------------------------------------------

data_VESTA_phase_1


_pd_phase_name                         MOF
_cell_length_a                         19.00600
_cell_length_b                         18.83300
_cell_length_c                         18.82200
_cell_angle_alpha                      89.99500
_cell_angle_beta                       90.00100
_cell_angle_gamma                      89.99800
_symmetry_space_group_name_H-M         "P 1"
_symmetry_Int_Tables_number            1

loop_
_symmetry_equiv_pos_as_xyz
   "x, y, z"

loop_
   _atom_site_label
   _atom_site_occupancy
   _atom_site_fract_x
   _atom_site_fract_y
   _atom_site_fract_z
   _atom_site_adp_type
   _atom_site_B_iso_or_equiv
   _atom_site_type_symbol
    O   1.0     0.376412     0.938501     0.376500  Biso 1.000000     O
    O   1.0     0.876420     0.938501     0.376501  Biso 1.000000     O
    O   1.0     0.255415     0.925583     0.423345  Biso 1.000000     O
    O   1.0     0.755423     0.925583     0.423345  Biso 1.000000     O
    O   1.0     0.354323     0.867115     0.488635  Biso 1.000000     O
    O   1.0     0.854331     0.867115     0.488636  Biso 1.000000     O
    O   1.0     0.345113     0.001458     0.488247  Biso 1.000000     O
    O   1.0     0.845121     0.001458     0.488247  Biso 1.000000     O
    O   1.0     0.493708     0.986040     0.650408  Biso 1.000000     O
    O   1.0     0.993716     0.986040     0.650408  Biso 1.000000     O
    O   1.0     0.361253     0.000000     0.639029  Biso 1.000000     O
    O   1.0     0.861261     0.000000     0.639029  Biso 1.000000     O
    O   1.0     0.419478     0.879499     0.626388  Biso 1.000000     O
    O   1.0     0.919486     0.879499     0.626388  Biso 1.000000     O
    O   1.0     0.410594     0.938242     0.744694  Biso 1.000000     O
    O   1.0     0.910602     0.938242     0.744694  Biso 1.000000     O
    O   1.0     0.497265     0.150370     0.498444  Biso 1.000000     O
    O   1.0     0.997273     0.150370     0.498444  Biso 1.000000     O
    O   1.0     0.493416     0.136479     0.632635  Biso 1.000000     O
    O   1.0     0.993424     0.136479     0.632635  Biso 1.000000     O
    O   1.0     0.382152     0.129022     0.558836  Biso 1.000000     O
    O   1.0     0.882160     0.129023     0.558836  Biso 1.000000     O
    O   1.0     0.441988     0.244390     0.577312  Biso 1.000000     O
    O   1.0     0.941995     0.244390     0.577312  Biso 1.000000     O
    O   1.0     0.376399     0.561506     0.123510  Biso 1.000000     O
    O   1.0     0.876407     0.561505     0.123510  Biso 1.000000     O
    O   1.0     0.255421     0.574461     0.076611  Biso 1.000000     O
    O   1.0     0.755429     0.574461     0.076611  Biso 1.000000     O
    O   1.0     0.354383     0.632963     0.011419  Biso 1.000000     O
    O   1.0     0.854391     0.632963     0.011419  Biso 1.000000     O
    O   1.0     0.345138     0.498623     0.011699  Biso 1.000000     O
    O   1.0     0.845146     0.498623     0.011698  Biso 1.000000     O
    O   1.0     0.493667     0.513898     0.849612  Biso 1.000000     O
    O   1.0     0.993675     0.513899     0.849611  Biso 1.000000     O
    O   1.0     0.361218     0.499823     0.860945  Biso 1.000000     O
    O   1.0     0.861226     0.499823     0.860945  Biso 1.000000     O
    O   1.0     0.419473     0.620486     0.873602  Biso 1.000000     O
    O   1.0     0.919481     0.620486     0.873602  Biso 1.000000     O
    O   1.0     0.410601     0.561752     0.755292  Biso 1.000000     O
    O   1.0     0.910609     0.561753     0.755292  Biso 1.000000     O
    O   1.0     0.497197     0.349574     0.001656  Biso 1.000000     O
    O   1.0     0.997205     0.349574     0.001656  Biso 1.000000     O
    O   1.0     0.493450     0.363478     0.867436  Biso 1.000000     O
    O   1.0     0.993458     0.363478     0.867436  Biso 1.000000     O
    O   1.0     0.382150     0.370989     0.941169  Biso 1.000000     O
    O   1.0     0.882158     0.370989     0.941170  Biso 1.000000     O
    O   1.0     0.441953     0.255596     0.922705  Biso 1.000000     O
    O   1.0     0.941961     0.255596     0.922705  Biso 1.000000     O
    O   1.0     0.376605     0.123477     0.938321  Biso 1.000000     O
    O   1.0     0.876613     0.123477     0.938321  Biso 1.000000     O
    O   1.0     0.255522     0.076711     0.925499  Biso 1.000000     O
    O   1.0     0.755530     0.076711     0.925499  Biso 1.000000     O
    O   1.0     0.354311     0.011360     0.866904  Biso 1.000000     O
    O   1.0     0.854319     0.011360     0.866904  Biso 1.000000     O
    O   1.0     0.345132     0.011749     0.001302  Biso 1.000000     O
    O   1.0     0.845140     0.011749     0.001303  Biso 1.000000     O
    O   1.0     0.493401     0.849017     0.987325  Biso 1.000000     O
    O   1.0     0.993409     0.849017     0.987325  Biso 1.000000     O
    O   1.0     0.360983     0.860966     0.000000  Biso 1.000000     O
    O   1.0     0.860991     0.860966     0.000000  Biso 1.000000     O
    O   1.0     0.419784     0.873600     0.879905  Biso 1.000000     O
    O   1.0     0.919792     0.873600     0.879905  Biso 1.000000     O
    O   1.0     0.410330     0.755422     0.938193  Biso 1.000000     O
    O   1.0     0.910338     0.755422     0.938193  Biso 1.000000     O
    O   1.0     0.497241     0.002085     0.148457  Biso 1.000000     O
    O   1.0     0.997249     0.002085     0.148457  Biso 1.000000     O
    O   1.0     0.493656     0.867571     0.138193  Biso 1.000000     O
    O   1.0     0.993664     0.867571     0.138193  Biso 1.000000     O
    O   1.0     0.382195     0.941110     0.128725  Biso 1.000000     O
    O   1.0     0.882203     0.941110     0.128725  Biso 1.000000     O
    O   1.0     0.441882     0.925579     0.244440  Biso 1.000000     O
    O   1.0     0.941890     0.925579     0.244440  Biso 1.000000     O
    O   1.0     0.376613     0.376532     0.561678  Biso 1.000000     O
    O   1.0     0.876621     0.376532     0.561678  Biso 1.000000     O
    O   1.0     0.255532     0.423291     0.574475  Biso 1.000000     O
    O   1.0     0.755540     0.423291     0.574475  Biso 1.000000     O
    O   1.0     0.354300     0.488730     0.632990  Biso 1.000000     O
    O   1.0     0.854308     0.488730     0.632990  Biso 1.000000     O
    O   1.0     0.345125     0.488191     0.498580  Biso 1.000000     O
    O   1.0     0.845133     0.488191     0.498580  Biso 1.000000     O
    O   1.0     0.493406     0.650997     0.512662  Biso 1.000000     O
    O   1.0     0.993414     0.650997     0.512662  Biso 1.000000     O
    O   1.0     0.360988     0.639022     0.499756  Biso 1.000000     O
    O   1.0     0.860996     0.639022     0.499756  Biso 1.000000     O
    O   1.0     0.419798     0.626436     0.620089  Biso 1.000000     O
    O   1.0     0.919806     0.626436     0.620089  Biso 1.000000     O
    O   1.0     0.410327     0.744598     0.561770  Biso 1.000000     O
    O   1.0     0.910335     0.744598     0.561770  Biso 1.000000     O
    O   1.0     0.497243     0.497942     0.351534  Biso 1.000000     O
    O   1.0     0.997251     0.497942     0.351534  Biso 1.000000     O
    O   1.0     0.493650     0.632463     0.361798  Biso 1.000000     O
    O   1.0     0.993658     0.632463     0.361798  Biso 1.000000     O
    O   1.0     0.382185     0.558926     0.371222  Biso 1.000000     O
    O   1.0     0.882193     0.558926     0.371222  Biso 1.000000     O
    O   1.0     0.441911     0.574465     0.255532  Biso 1.000000     O
    O   1.0     0.941919     0.574465     0.255532  Biso 1.000000     O
    O   1.0     0.123599     0.061507     0.623495  Biso 1.000000     O
    O   1.0     0.623607     0.061507     0.623495  Biso 1.000000     O
    O   1.0     0.244595     0.074425     0.576651  Biso 1.000000     O
    O   1.0     0.744603     0.074425     0.576651  Biso 1.000000     O
    O   1.0     0.145687     0.132893     0.511360  Biso 1.000000     O
    O   1.0     0.645695     0.132894     0.511361  Biso 1.000000     O
    O   1.0     0.154898     0.998550     0.511748  Biso 1.000000     O
    O   1.0     0.654905     0.998551     0.511748  Biso 1.000000     O
    O   1.0     0.006302     0.013969     0.349587  Biso 1.000000     O
    O   1.0     0.506310     0.013969     0.349587  Biso 1.000000     O
    O   1.0     0.138757    -0.000173     0.360967  Biso 1.000000     O
    O   1.0     0.638765    -0.000173     0.360966  Biso 1.000000     O
    O   1.0     0.080532     0.120509     0.373608  Biso 1.000000     O
    O   1.0     0.580540     0.120509     0.373608  Biso 1.000000     O
    O   1.0     0.089416     0.061767     0.255301  Biso 1.000000     O
    O   1.0     0.589424     0.061767     0.255301  Biso 1.000000     O
    O   1.0     0.002745     0.849639     0.501551  Biso 1.000000     O
    O   1.0     0.502753     0.849639     0.501551  Biso 1.000000     O
    O   1.0     0.006595     0.863530     0.367361  Biso 1.000000     O
    O   1.0     0.506603     0.863530     0.367361  Biso 1.000000     O
    O   1.0     0.117858     0.870986     0.441160  Biso 1.000000     O
    O   1.0     0.617866     0.870986     0.441160  Biso 1.000000     O
    O   1.0     0.058023     0.755618     0.422683  Biso 1.000000     O
    O   1.0     0.558031     0.755619     0.422683  Biso 1.000000     O
    O   1.0     0.123611     0.438503     0.876486  Biso 1.000000     O
    O   1.0     0.623619     0.438503     0.876486  Biso 1.000000     O
    O   1.0     0.244590     0.425547     0.923384  Biso 1.000000     O
    O   1.0     0.744598     0.425547     0.923384  Biso 1.000000     O
    O   1.0     0.145627     0.367046     0.988577  Biso 1.000000     O
    O   1.0     0.645635     0.367046     0.988577  Biso 1.000000     O
    O   1.0     0.154872     0.501385     0.988297  Biso 1.000000     O
    O   1.0     0.654880     0.501386     0.988297  Biso 1.000000     O
    O   1.0     0.006344     0.486111     0.150384  Biso 1.000000     O
    O   1.0     0.506352     0.486111     0.150384  Biso 1.000000     O
    O   1.0     0.138793     0.500185     0.139051  Biso 1.000000     O
    O   1.0     0.638801     0.500185     0.139051  Biso 1.000000     O
    O   1.0     0.080537     0.379523     0.126394  Biso 1.000000     O
    O   1.0     0.580545     0.379523     0.126394  Biso 1.000000     O
    O   1.0     0.089409     0.438256     0.244704  Biso 1.000000     O
    O   1.0     0.589417     0.438256     0.244704  Biso 1.000000     O
    O   1.0     0.002814     0.650435     0.998339  Biso 1.000000     O
    O   1.0     0.502821     0.650435     0.998340  Biso 1.000000     O
    O   1.0     0.006560     0.636531     0.132559  Biso 1.000000     O
    O   1.0     0.506568     0.636531     0.132560  Biso 1.000000     O
    O   1.0     0.117860     0.629019     0.058826  Biso 1.000000     O
    O   1.0     0.617868     0.629019     0.058826  Biso 1.000000     O
    O   1.0     0.058058     0.744413     0.077291  Biso 1.000000     O
    O   1.0     0.558066     0.744413     0.077291  Biso 1.000000     O
    O   1.0     0.123406     0.876532     0.061675  Biso 1.000000     O
    O   1.0     0.623414     0.876532     0.061675  Biso 1.000000     O
    O   1.0     0.244488     0.923297     0.074497  Biso 1.000000     O
    O   1.0     0.744496     0.923297     0.074497  Biso 1.000000     O
    O   1.0     0.145699     0.988648     0.133091  Biso 1.000000     O
    O   1.0     0.645707     0.988648     0.133091  Biso 1.000000     O
    O   1.0     0.154878     0.988259     0.998693  Biso 1.000000     O
    O   1.0     0.654886     0.988259     0.998693  Biso 1.000000     O
    O   1.0     0.006609     0.150991     0.012671  Biso 1.000000     O
    O   1.0     0.506617     0.150991     0.012671  Biso 1.000000     O
    O   1.0     0.139028     0.139042    -0.000241  Biso 1.000000     O
    O   1.0     0.639036     0.139042    -0.000241  Biso 1.000000     O
    O   1.0     0.080227     0.126408     0.120090  Biso 1.000000     O
    O   1.0     0.580235     0.126408     0.120090  Biso 1.000000     O
    O   1.0     0.089680     0.244587     0.061803  Biso 1.000000     O
    O   1.0     0.589688     0.244587     0.061803  Biso 1.000000     O
    O   1.0     0.002770     0.997924     0.851538  Biso 1.000000     O
    O   1.0     0.502778     0.997924     0.851538  Biso 1.000000     O
    O   1.0     0.006354     0.132437     0.861803  Biso 1.000000     O
    O   1.0     0.506362     0.132437     0.861803  Biso 1.000000     O
    O   1.0     0.117816     0.058898     0.871271  Biso 1.000000     O
    O   1.0     0.617824     0.058898     0.871271  Biso 1.000000     O
    O   1.0     0.058128     0.074430     0.755555  Biso 1.000000     O
    O   1.0     0.558136     0.074430     0.755555  Biso 1.000000     O
    O   1.0     0.123397     0.623476     0.438317  Biso 1.000000     O
    O   1.0     0.623405     0.623476     0.438317  Biso 1.000000     O
    O   1.0     0.244479     0.576718     0.425521  Biso 1.000000     O
    O   1.0     0.744487     0.576718     0.425521  Biso 1.000000     O
    O   1.0     0.145710     0.511279     0.367005  Biso 1.000000     O
    O   1.0     0.645718     0.511279     0.367006  Biso 1.000000     O
    O   1.0     0.154885     0.511817     0.501415  Biso 1.000000     O
    O   1.0     0.654893     0.511818     0.501415  Biso 1.000000     O
    O   1.0     0.006605     0.349011     0.487334  Biso 1.000000     O
    O   1.0     0.506613     0.349011     0.487334  Biso 1.000000     O
    O   1.0     0.139022     0.360986     0.500240  Biso 1.000000     O
    O   1.0     0.639030     0.360986     0.500240  Biso 1.000000     O
    O   1.0     0.080212     0.373573     0.379906  Biso 1.000000     O
    O   1.0     0.580220     0.373573     0.379906  Biso 1.000000     O
    O   1.0     0.089684     0.255410     0.438226  Biso 1.000000     O
    O   1.0     0.589692     0.255410     0.438226  Biso 1.000000     O
    O   1.0     0.002768     0.502066     0.648461  Biso 1.000000     O
    O   1.0     0.502776     0.502066     0.648461  Biso 1.000000     O
    O   1.0     0.006361     0.367545     0.638198  Biso 1.000000     O
    O   1.0     0.506369     0.367545     0.638198  Biso 1.000000     O
    O   1.0     0.117825     0.441082     0.628773  Biso 1.000000     O
    O   1.0     0.617833     0.441082     0.628774  Biso 1.000000     O
    O   1.0     0.058099     0.425543     0.744464  Biso 1.000000     O
    O   1.0     0.558107     0.425543     0.744464  Biso 1.000000     O
   Al   1.0     0.458048     0.935667     0.334637  Biso 1.000000    Al
   Al   1.0     0.958056     0.935667     0.334637  Biso 1.000000    Al
   Al   1.0     0.421702     0.835013     0.544573  Biso 1.000000    Al
   Al   1.0     0.921710     0.835013     0.544573  Biso 1.000000    Al
   Al   1.0     0.332837     0.051068     0.566104  Biso 1.000000    Al
   Al   1.0     0.832845     0.051068     0.566104  Biso 1.000000    Al
   Al   1.0     0.458056     0.564397     0.165334  Biso 1.000000    Al
   Al   1.0     0.958064     0.564396     0.165333  Biso 1.000000    Al
   Al   1.0     0.421722     0.665012     0.955393  Biso 1.000000    Al
   Al   1.0     0.921730     0.665012     0.955393  Biso 1.000000    Al
   Al   1.0     0.332827     0.448939     0.933890  Biso 1.000000    Al
   Al   1.0     0.832835     0.448940     0.933890  Biso 1.000000    Al
   Al   1.0     0.458200     0.165499     0.934260  Biso 1.000000    Al
   Al   1.0     0.958208     0.165499     0.934260  Biso 1.000000    Al
   Al   1.0     0.421792     0.955279     0.835288  Biso 1.000000    Al
   Al   1.0     0.921800     0.955279     0.835288  Biso 1.000000    Al
   Al   1.0     0.332652     0.933983     0.050937  Biso 1.000000    Al
   Al   1.0     0.832660     0.933983     0.050937  Biso 1.000000    Al
   Al   1.0     0.458201     0.334490     0.565742  Biso 1.000000    Al
   Al   1.0     0.958209     0.334490     0.565742  Biso 1.000000    Al
   Al   1.0     0.421801     0.544747     0.664689  Biso 1.000000    Al
   Al   1.0     0.921809     0.544747     0.664689  Biso 1.000000    Al
   Al   1.0     0.332657     0.566029     0.449026  Biso 1.000000    Al
   Al   1.0     0.832665     0.566029     0.449026  Biso 1.000000    Al
   Al   1.0     0.041963     0.064341     0.665359  Biso 1.000000    Al
   Al   1.0     0.541970     0.064341     0.665359  Biso 1.000000    Al
   Al   1.0     0.078308     0.164995     0.455423  Biso 1.000000    Al
   Al   1.0     0.578316     0.164995     0.455423  Biso 1.000000    Al
   Al   1.0     0.167174     0.948940     0.433891  Biso 1.000000    Al
   Al   1.0     0.667182     0.948940     0.433891  Biso 1.000000    Al
   Al   1.0     0.041954     0.435613     0.834662  Biso 1.000000    Al
   Al   1.0     0.541962     0.435612     0.834662  Biso 1.000000    Al
   Al   1.0     0.078288     0.334997     0.044602  Biso 1.000000    Al
   Al   1.0     0.578296     0.334997     0.044602  Biso 1.000000    Al
   Al   1.0     0.167184     0.551069     0.066106  Biso 1.000000    Al
   Al   1.0     0.667191     0.551069     0.066106  Biso 1.000000    Al
   Al   1.0     0.041810     0.834509     0.065735  Biso 1.000000    Al
   Al   1.0     0.541818     0.834509     0.065735  Biso 1.000000    Al
   Al   1.0     0.078219     0.044730     0.164707  Biso 1.000000    Al
   Al   1.0     0.578227     0.044730     0.164707  Biso 1.000000    Al
   Al   1.0     0.167359     0.066026     0.949059  Biso 1.000000    Al
   Al   1.0     0.667367     0.066026     0.949059  Biso 1.000000    Al
   Al   1.0     0.041809     0.665518     0.434253  Biso 1.000000    Al
   Al   1.0     0.541817     0.665518     0.434253  Biso 1.000000    Al
   Al   1.0     0.078209     0.455261     0.335306  Biso 1.000000    Al
   Al   1.0     0.578217     0.455261     0.335306  Biso 1.000000    Al
   Al   1.0     0.167353     0.433979     0.550969  Biso 1.000000    Al
   Al   1.0     0.667361     0.433979     0.550969  Biso 1.000000    Al
    P   1.0     0.332900     0.933096     0.444899  Biso 1.000000     P
    P   1.0     0.832908     0.933096     0.444900  Biso 1.000000     P
    P   1.0     0.421365     0.951431     0.664971  Biso 1.000000     P
    P   1.0     0.921373     0.951431     0.664971  Biso 1.000000     P
    P   1.0     0.454292     0.164791     0.566649  Biso 1.000000     P
    P   1.0     0.954300     0.164791     0.566649  Biso 1.000000     P
    P   1.0     0.332917     0.566961     0.055094  Biso 1.000000     P
    P   1.0     0.832925     0.566961     0.055094  Biso 1.000000     P
    P   1.0     0.421348     0.548551     0.835019  Biso 1.000000     P
    P   1.0     0.921356     0.548551     0.835019  Biso 1.000000     P
    P   1.0     0.454279     0.335186     0.933401  Biso 1.000000     P
    P   1.0     0.954287     0.335186     0.933401  Biso 1.000000     P
    P   1.0     0.333017     0.055143     0.932921  Biso 1.000000     P
    P   1.0     0.833025     0.055143     0.932921  Biso 1.000000     P
    P   1.0     0.421323     0.834956     0.951855  Biso 1.000000     P
    P   1.0     0.921331     0.834956     0.951855  Biso 1.000000     P
    P   1.0     0.454326     0.934225     0.164636  Biso 1.000000     P
    P   1.0     0.954334     0.934225     0.164636  Biso 1.000000     P
    P   1.0     0.333019     0.444872     0.567015  Biso 1.000000     P
    P   1.0     0.833027     0.444872     0.567015  Biso 1.000000     P
    P   1.0     0.421327     0.665059     0.548129  Biso 1.000000     P
    P   1.0     0.921335     0.665059     0.548129  Biso 1.000000     P
    P   1.0     0.454329     0.565813     0.335339  Biso 1.000000     P
    P   1.0     0.954337     0.565813     0.335339  Biso 1.000000     P
    P   1.0     0.167110     0.066912     0.555096  Biso 1.000000     P
    P   1.0     0.667118     0.066912     0.555096  Biso 1.000000     P
    P   1.0     0.078645     0.048578     0.335025  Biso 1.000000     P
    P   1.0     0.578653     0.048578     0.335025  Biso 1.000000     P
    P   1.0     0.045718     0.835218     0.433347  Biso 1.000000     P
    P   1.0     0.545726     0.835218     0.433347  Biso 1.000000     P
    P   1.0     0.167094     0.433048     0.944901  Biso 1.000000     P
    P   1.0     0.667102     0.433048     0.944902  Biso 1.000000     P
    P   1.0     0.078662     0.451458     0.164977  Biso 1.000000     P
    P   1.0     0.578670     0.451458     0.164977  Biso 1.000000     P
    P   1.0     0.045731     0.664823     0.066594  Biso 1.000000     P
    P   1.0     0.545739     0.664823     0.066594  Biso 1.000000     P
    P   1.0     0.166993     0.944866     0.067075  Biso 1.000000     P
    P   1.0     0.667001     0.944866     0.067075  Biso 1.000000     P
    P   1.0     0.078687     0.165052     0.048141  Biso 1.000000     P
    P   1.0     0.578695     0.165052     0.048141  Biso 1.000000     P
    P   1.0     0.045685     0.065783     0.835360  Biso 1.000000     P
    P   1.0     0.545693     0.065783     0.835360  Biso 1.000000     P
    P   1.0     0.166991     0.555136     0.432980  Biso 1.000000     P
    P   1.0     0.666999     0.555136     0.432980  Biso 1.000000     P
    P   1.0     0.078684     0.334949     0.451867  Biso 1.000000     P
    P   1.0     0.578692     0.334949     0.451867  Biso 1.000000     P
    P   1.0     0.045681     0.434195     0.664656  Biso 1.000000     P
    P   1.0     0.545689     0.434195     0.664656  Biso 1.000000     P
