#======================================================================

# CRYSTAL DATA

#----------------------------------------------------------------------

data_VESTA_phase_1


_pd_phase_name                         MOF
_cell_length_a                         14.60900
_cell_length_b                         21.98600
_cell_length_c                         21.97200
_cell_angle_alpha                      60.76400
_cell_angle_beta                       90.01400
_cell_angle_gamma                      89.99300
_symmetry_space_group_name_H-M         "P 1"
_symmetry_Int_Tables_number            1

loop_
_symmetry_equiv_pos_as_xyz
   "x, y, z"

loop_
   _atom_site_label
   _atom_site_occupancy
   _atom_site_fract_x
   _atom_site_fract_y
   _atom_site_fract_z
   _atom_site_adp_type
   _atom_site_B_iso_or_equiv
   _atom_site_type_symbol
    H   1.0     0.228055     0.798611     0.686323  Biso 1.000000     H
    H   1.0     0.728070     0.798611     0.686323  Biso 1.000000     H
    H   1.0     0.021985     0.966782     0.323040  Biso 1.000000     H
    H   1.0     0.521999     0.966779     0.323042  Biso 1.000000     H
    H   1.0     0.022002     0.962336     0.210745  Biso 1.000000     H
    H   1.0     0.522016     0.962339     0.210744  Biso 1.000000     H
    H   1.0     0.478077     0.202547     0.315221  Biso 1.000000     H
    H   1.0     0.978091     0.202547     0.315221  Biso 1.000000     H
    H   1.0     0.271896     0.030722     0.678361  Biso 1.000000     H
    H   1.0     0.771910     0.030720     0.678362  Biso 1.000000     H
    H   1.0     0.271923     0.033508     0.791234  Biso 1.000000     H
    H   1.0     0.771938     0.033508     0.791234  Biso 1.000000     H
    H   1.0     0.021816     0.684981     0.798970  Biso 1.000000     H
    H   1.0     0.521830     0.684981     0.798970  Biso 1.000000     H
    H   1.0     0.228035     0.322684     0.968217  Biso 1.000000     H
    H   1.0     0.728050     0.322687     0.968213  Biso 1.000000     H
    H   1.0     0.228037     0.209957     0.965676  Biso 1.000000     H
    H   1.0     0.728051     0.209955     0.965679  Biso 1.000000     H
    H   1.0     0.271928     0.315501     0.202953  Biso 1.000000     H
    H   1.0     0.771943     0.315500     0.202953  Biso 1.000000     H
    H   1.0     0.477878     0.678964     0.031929  Biso 1.000000     H
    H   1.0     0.977892     0.678965     0.031928  Biso 1.000000     H
    H   1.0     0.478031     0.790602     0.037435  Biso 1.000000     H
    H   1.0     0.978045     0.790601     0.037437  Biso 1.000000     H
    H   1.0     0.271868     0.202128     0.315071  Biso 1.000000     H
    H   1.0     0.771883     0.202127     0.315071  Biso 1.000000     H
    H   1.0     0.478125     0.031100     0.678109  Biso 1.000000     H
    H   1.0     0.978139     0.031101     0.678108  Biso 1.000000     H
    H   1.0     0.478074     0.033902     0.790976  Biso 1.000000     H
    H   1.0     0.978088     0.033901     0.790977  Biso 1.000000     H
    H   1.0     0.021980     0.797474     0.685577  Biso 1.000000     H
    H   1.0     0.521995     0.797474     0.685578  Biso 1.000000     H
    H   1.0     0.228091     0.966959     0.322891  Biso 1.000000     H
    H   1.0     0.728106     0.966962     0.322890  Biso 1.000000     H
    H   1.0     0.228096     0.962506     0.210601  Biso 1.000000     H
    H   1.0     0.728111     0.962503     0.210603  Biso 1.000000     H
    H   1.0     0.478137     0.315958     0.203133  Biso 1.000000     H
    H   1.0     0.978151     0.315958     0.203134  Biso 1.000000     H
    H   1.0     0.271821     0.677754     0.033914  Biso 1.000000     H
    H   1.0     0.771836     0.677754     0.033915  Biso 1.000000     H
    H   1.0     0.271924     0.789468     0.039291  Biso 1.000000     H
    H   1.0     0.771939     0.789469     0.039288  Biso 1.000000     H
    H   1.0     0.228017     0.686214     0.799790  Biso 1.000000     H
    H   1.0     0.728031     0.686214     0.799790  Biso 1.000000     H
    H   1.0     0.021837     0.322284     0.968835  Biso 1.000000     H
    H   1.0     0.521851     0.322282     0.968840  Biso 1.000000     H
    H   1.0     0.021752     0.209611     0.966210  Biso 1.000000     H
    H   1.0     0.521766     0.209613     0.966207  Biso 1.000000     H
    H   1.0     0.375335     0.457964     0.100711  Biso 1.000000     H
    H   1.0     0.875349     0.457964     0.100711  Biso 1.000000     H
    H   1.0     0.125073     0.899768     0.540297  Biso 1.000000     H
    H   1.0     0.625087     0.899768     0.540296  Biso 1.000000     H
    H   1.0     0.374969     0.099805     0.459492  Biso 1.000000     H
    H   1.0     0.874983     0.099804     0.459491  Biso 1.000000     H
    H   1.0     0.125364     0.463899     0.937372  Biso 1.000000     H
    H   1.0     0.625378     0.463900     0.937371  Biso 1.000000     H
    H   1.0     0.125049     0.080915     0.009918  Biso 1.000000     H
    H   1.0     0.625063     0.080915     0.009918  Biso 1.000000     H
    H   1.0     0.374940     0.989534     0.920145  Biso 1.000000     H
    H   1.0     0.874955     0.989535     0.920145  Biso 1.000000     H
    C   1.0     0.291987     0.773124     0.711144  Biso 1.000000     C
    C   1.0     0.792002     0.773125     0.711146  Biso 1.000000     C
    C   1.0     0.458192     0.965553     0.298034  Biso 1.000000     C
    C   1.0     0.958206     0.965542     0.298040  Biso 1.000000     C
    C   1.0     0.458213     0.962910     0.236080  Biso 1.000000     C
    C   1.0     0.958228     0.962919     0.236076  Biso 1.000000     C
    C   1.0     0.042036     0.228050     0.290576  Biso 1.000000     C
    C   1.0     0.542051     0.228049     0.290575  Biso 1.000000     C
    C   1.0     0.208064     0.031663     0.703470  Biso 1.000000     C
    C   1.0     0.708079     0.031663     0.703469  Biso 1.000000     C
    C   1.0     0.207956     0.033114     0.766025  Biso 1.000000     C
    C   1.0     0.707970     0.033112     0.766027  Biso 1.000000     C
    C   1.0     0.458021     0.710257     0.773586  Biso 1.000000     C
    C   1.0     0.958036     0.710254     0.773584  Biso 1.000000     C
    C   1.0     0.292002     0.297765     0.967271  Biso 1.000000     C
    C   1.0     0.792016     0.297760     0.967280  Biso 1.000000     C
    C   1.0     0.292013     0.235123     0.966069  Biso 1.000000     C
    C   1.0     0.792027     0.235128     0.966058  Biso 1.000000     C
    C   1.0     0.207951     0.290643     0.228248  Biso 1.000000     C
    C   1.0     0.707966     0.290643     0.228248  Biso 1.000000     C
    C   1.0     0.041714     0.703462     0.033950  Biso 1.000000     C
    C   1.0     0.541729     0.703465     0.033944  Biso 1.000000     C
    C   1.0     0.041776     0.765092     0.037126  Biso 1.000000     C
    C   1.0     0.541791     0.765090     0.037131  Biso 1.000000     C
    C   1.0     0.207929     0.227813     0.290488  Biso 1.000000     C
    C   1.0     0.707944     0.227812     0.290487  Biso 1.000000     C
    C   1.0     0.041937     0.031877     0.703328  Biso 1.000000     C
    C   1.0     0.541952     0.031878     0.703327  Biso 1.000000     C
    C   1.0     0.042032     0.033333     0.765882  Biso 1.000000     C
    C   1.0     0.542047     0.033330     0.765883  Biso 1.000000     C
    C   1.0     0.458004     0.772481     0.710718  Biso 1.000000     C
    C   1.0     0.958019     0.772483     0.710720  Biso 1.000000     C
    C   1.0     0.291903     0.965652     0.297951  Biso 1.000000     C
    C   1.0     0.791917     0.965641     0.297957  Biso 1.000000     C
    C   1.0     0.291892     0.963004     0.236001  Biso 1.000000     C
    C   1.0     0.791907     0.963013     0.235996  Biso 1.000000     C
    C   1.0     0.042078     0.290899     0.228345  Biso 1.000000     C
    C   1.0     0.542093     0.290899     0.228345  Biso 1.000000     C
    C   1.0     0.208024     0.702789     0.035060  Biso 1.000000     C
    C   1.0     0.708038     0.702792     0.035053  Biso 1.000000     C
    C   1.0     0.208094     0.764452     0.038181  Biso 1.000000     C
    C   1.0     0.708109     0.764450     0.038185  Biso 1.000000     C
    C   1.0     0.291866     0.710943     0.774042  Biso 1.000000     C
    C   1.0     0.791880     0.710941     0.774040  Biso 1.000000     C
    C   1.0     0.457870     0.297538     0.967613  Biso 1.000000     C
    C   1.0     0.957885     0.297533     0.967622  Biso 1.000000     C
    C   1.0     0.457815     0.234927     0.966373  Biso 1.000000     C
    C   1.0     0.957830     0.234933     0.966362  Biso 1.000000     C
    C   1.0     0.375054     0.872469     0.612331  Biso 1.000000     C
    C   1.0     0.875068     0.872468     0.612330  Biso 1.000000     C
    C   1.0     0.375024     0.804453     0.679035  Biso 1.000000     C
    C   1.0     0.875039     0.804453     0.679035  Biso 1.000000     C
    C   1.0     0.375028     0.973599     0.394002  Biso 1.000000     C
    C   1.0     0.875043     0.973602     0.394000  Biso 1.000000     C
    C   1.0     0.375043     0.967452     0.329044  Biso 1.000000     C
    C   1.0     0.875058     0.967452     0.329044  Biso 1.000000     C
    C   1.0     0.375056     0.962221     0.204428  Biso 1.000000     C
    C   1.0     0.875070     0.962219     0.204429  Biso 1.000000     C
    C   1.0     0.375048     0.964441     0.135273  Biso 1.000000     C
    C   1.0     0.875063     0.964436     0.135276  Biso 1.000000     C
    C   1.0     0.124959     0.127330     0.388310  Biso 1.000000     C
    C   1.0     0.624973     0.127330     0.388310  Biso 1.000000     C
    C   1.0     0.124966     0.195955     0.322142  Biso 1.000000     C
    C   1.0     0.624981     0.195954     0.322142  Biso 1.000000     C
    C   1.0     0.125008     0.025559     0.606321  Biso 1.000000     C
    C   1.0     0.625023     0.025557     0.606322  Biso 1.000000     C
    C   1.0     0.125003     0.030434     0.672038  Biso 1.000000     C
    C   1.0     0.625017     0.030433     0.672038  Biso 1.000000     C
    C   1.0     0.124990     0.033386     0.798067  Biso 1.000000     C
    C   1.0     0.625004     0.033385     0.798067  Biso 1.000000     C
    C   1.0     0.124972     0.030536     0.867628  Biso 1.000000     C
    C   1.0     0.624987     0.030537     0.867628  Biso 1.000000     C
    C   1.0     0.374841     0.613248     0.874453  Biso 1.000000     C
    C   1.0     0.874856     0.613248     0.874454  Biso 1.000000     C
    C   1.0     0.374917     0.679229     0.805732  Biso 1.000000     C
    C   1.0     0.874932     0.679229     0.805732  Biso 1.000000     C
    C   1.0     0.375085     0.395111     0.973119  Biso 1.000000     C
    C   1.0     0.875100     0.395114     0.973113  Biso 1.000000     C
    C   1.0     0.374948     0.329268     0.968539  Biso 1.000000     C
    C   1.0     0.874962     0.329268     0.968538  Biso 1.000000     C
    C   1.0     0.374902     0.202890     0.966111  Biso 1.000000     C
    C   1.0     0.874916     0.202891     0.966110  Biso 1.000000     C
    C   1.0     0.374929     0.133171     0.969227  Biso 1.000000     C
    C   1.0     0.874944     0.133168     0.969232  Biso 1.000000     C
    C   1.0     0.125118     0.389690     0.128645  Biso 1.000000     C
    C   1.0     0.625133     0.389690     0.128645  Biso 1.000000     C
    C   1.0     0.125032     0.322761     0.196662  Biso 1.000000     C
    C   1.0     0.625047     0.322761     0.196661  Biso 1.000000     C
    C   1.0     0.124806     0.607871     0.025416  Biso 1.000000     C
    C   1.0     0.624821     0.607870     0.025417  Biso 1.000000     C
    C   1.0     0.124842     0.672257     0.032367  Biso 1.000000     C
    C   1.0     0.624857     0.672257     0.032367  Biso 1.000000     C
    C   1.0     0.124973     0.796219     0.038662  Biso 1.000000     C
    C   1.0     0.624988     0.796220     0.038661  Biso 1.000000     C
    C   1.0     0.125046     0.865200     0.036744  Biso 1.000000     C
    C   1.0     0.625060     0.865201     0.036742  Biso 1.000000     C
    O   1.0     0.452987     0.898727     0.586765  Biso 1.000000     O
    O   1.0     0.953001     0.898728     0.586765  Biso 1.000000     O
    O   1.0     0.453103     0.976145     0.418658  Biso 1.000000     O
    O   1.0     0.953118     0.976145     0.418658  Biso 1.000000     O
    O   1.0     0.452950     0.965890     0.108446  Biso 1.000000     O
    O   1.0     0.952964     0.965889     0.108446  Biso 1.000000     O
    O   1.0     0.202933     0.100992     0.413590  Biso 1.000000     O
    O   1.0     0.702947     0.100992     0.413590  Biso 1.000000     O
    O   1.0     0.203087     0.023510     0.581496  Biso 1.000000     O
    O   1.0     0.703101     0.023508     0.581497  Biso 1.000000     O
    O   1.0     0.203011     0.028883     0.894608  Biso 1.000000     O
    O   1.0     0.703026     0.028883     0.894608  Biso 1.000000     O
    O   1.0     0.296853     0.588966     0.901263  Biso 1.000000     O
    O   1.0     0.796867     0.588965     0.901262  Biso 1.000000     O
    O   1.0     0.297141     0.420672     0.974450  Biso 1.000000     O
    O   1.0     0.797156     0.420673     0.974448  Biso 1.000000     O
    O   1.0     0.296896     0.106321     0.970901  Biso 1.000000     O
    O   1.0     0.796910     0.106321     0.970901  Biso 1.000000     O
    O   1.0     0.047116     0.415498     0.102720  Biso 1.000000     O
    O   1.0     0.547131     0.415498     0.102720  Biso 1.000000     O
    O   1.0     0.046850     0.584006     0.021376  Biso 1.000000     O
    O   1.0     0.546865     0.584006     0.021376  Biso 1.000000     O
    O   1.0     0.047164     0.892046     0.035291  Biso 1.000000     O
    O   1.0     0.547178     0.892046     0.035290  Biso 1.000000     O
    O   1.0     0.047007     0.100996     0.413554  Biso 1.000000     O
    O   1.0     0.547022     0.100996     0.413554  Biso 1.000000     O
    O   1.0     0.046919     0.023631     0.581415  Biso 1.000000     O
    O   1.0     0.546933     0.023631     0.581415  Biso 1.000000     O
    O   1.0     0.046936     0.029098     0.894484  Biso 1.000000     O
    O   1.0     0.546951     0.029098     0.894483  Biso 1.000000     O
    O   1.0     0.297111     0.898760     0.586739  Biso 1.000000     O
    O   1.0     0.797126     0.898759     0.586739  Biso 1.000000     O
    O   1.0     0.296956     0.976180     0.418618  Biso 1.000000     O
    O   1.0     0.796970     0.976179     0.418618  Biso 1.000000     O
    O   1.0     0.297110     0.965837     0.108486  Biso 1.000000     O
    O   1.0     0.797125     0.965837     0.108486  Biso 1.000000     O
    O   1.0     0.203230     0.414789     0.102412  Biso 1.000000     O
    O   1.0     0.703245     0.414788     0.102411  Biso 1.000000     O
    O   1.0     0.202689     0.582600     0.023676  Biso 1.000000     O
    O   1.0     0.702703     0.582601     0.023675  Biso 1.000000     O
    O   1.0     0.202967     0.891846     0.035583  Biso 1.000000     O
    O   1.0     0.702982     0.891846     0.035583  Biso 1.000000     O
    O   1.0     0.452720     0.587314     0.900134  Biso 1.000000     O
    O   1.0     0.952735     0.587314     0.900134  Biso 1.000000     O
    O   1.0     0.453259     0.419611     0.975801  Biso 1.000000     O
    O   1.0     0.953273     0.419612     0.975801  Biso 1.000000     O
    O   1.0     0.453014     0.106369     0.970877  Biso 1.000000     O
    O   1.0     0.953028     0.106369     0.970877  Biso 1.000000     O
    O   1.0     0.375000     0.052020     0.497920  Biso 1.000000     O
    O   1.0     0.875014     0.052020     0.497920  Biso 1.000000     O
    O   1.0     0.125024     0.947790     0.502329  Biso 1.000000     O
    O   1.0     0.625039     0.947790     0.502328  Biso 1.000000     O
    O   1.0     0.375144     0.496984     0.053232  Biso 1.000000     O
    O   1.0     0.875158     0.496984     0.053232  Biso 1.000000     O
    O   1.0     0.125128     0.501155     0.949337  Biso 1.000000     O
    O   1.0     0.625142     0.501155     0.949337  Biso 1.000000     O
    O   1.0     0.375012     0.971497     0.970448  Biso 1.000000     O
    O   1.0     0.875027     0.971497     0.970448  Biso 1.000000     O
    O   1.0     0.125003     0.030525     0.028810  Biso 1.000000     O
    O   1.0     0.625018     0.030525     0.028810  Biso 1.000000     O
   In   1.0    -0.000156    -0.000319     0.500109  Biso 1.000000    In
   In   1.0     0.499859    -0.000320     0.500109  Biso 1.000000    In
   In   1.0     0.250166    -0.000314     0.500095  Biso 1.000000    In
   In   1.0     0.750181    -0.000315     0.500095  Biso 1.000000    In
   In   1.0     0.249936     0.501909     0.000000  Biso 1.000000    In
   In   1.0     0.749951     0.501909     0.000000  Biso 1.000000    In
   In   1.0     0.000139     0.501840     0.000000  Biso 1.000000    In
   In   1.0     0.500153     0.501840     0.000000  Biso 1.000000    In
   In   1.0     0.000049    -0.001938     0.002480  Biso 1.000000    In
   In   1.0     0.500063    -0.001938     0.002479  Biso 1.000000    In
   In   1.0     0.249929    -0.002055     0.002565  Biso 1.000000    In
   In   1.0     0.749944    -0.002056     0.002566  Biso 1.000000    In
