#======================================================================

# CRYSTAL DATA

#----------------------------------------------------------------------

data_VESTA_phase_1


_pd_phase_name                         MOF
_cell_length_a                         24.34100
_cell_length_b                         13.78100
_cell_length_c                         26.97300
_cell_angle_alpha                      93.87800
_cell_angle_beta                       90.12800
_cell_angle_gamma                      89.47500
_symmetry_space_group_name_H-M         "P 1"
_symmetry_Int_Tables_number            1

loop_
_symmetry_equiv_pos_as_xyz
   "x, y, z"

loop_
   _atom_site_label
   _atom_site_occupancy
   _atom_site_fract_x
   _atom_site_fract_y
   _atom_site_fract_z
   _atom_site_adp_type
   _atom_site_B_iso_or_equiv
   _atom_site_type_symbol
    H   1.0     0.038178     0.884194     0.746122  Biso 1.000000     H
    H   1.0     0.538108     0.884169     0.746134  Biso 1.000000     H
    H   1.0     0.106681     0.636324     0.813667  Biso 1.000000     H
    H   1.0     0.606688     0.636342     0.813660  Biso 1.000000     H
    H   1.0     0.138756     0.567920     0.730214  Biso 1.000000     H
    H   1.0     0.638720     0.567928     0.730195  Biso 1.000000     H
    H   1.0     0.122461     0.661471     0.655514  Biso 1.000000     H
    H   1.0     0.622375     0.661461     0.655497  Biso 1.000000     H
    H   1.0     0.242981     0.882026     0.468572  Biso 1.000000     H
    H   1.0     0.742988     0.882022     0.468556  Biso 1.000000     H
    H   1.0     0.134353     0.091402     0.408159  Biso 1.000000     H
    H   1.0     0.634375     0.091499     0.408202  Biso 1.000000     H
    H   1.0     0.211350     0.150989     0.357109  Biso 1.000000     H
    H   1.0     0.711380     0.151127     0.357176  Biso 1.000000     H
    H   1.0     0.305297     0.079477     0.365445  Biso 1.000000     H
    H   1.0     0.805321     0.079576     0.365489  Biso 1.000000     H
    H   1.0     0.036739     0.116207     0.753265  Biso 1.000000     H
    H   1.0     0.536793     0.116223     0.753294  Biso 1.000000     H
    H   1.0     0.105273     0.363182     0.687045  Biso 1.000000     H
    H   1.0     0.605322     0.363151     0.687022  Biso 1.000000     H
    H   1.0     0.135615     0.430899     0.771077  Biso 1.000000     H
    H   1.0     0.635709     0.430880     0.771038  Biso 1.000000     H
    H   1.0     0.118631     0.337281     0.845382  Biso 1.000000     H
    H   1.0     0.618736     0.337299     0.845361  Biso 1.000000     H
    H   1.0     0.240811     0.118281     0.031570  Biso 1.000000     H
    H   1.0     0.740809     0.118309     0.031577  Biso 1.000000     H
    H   1.0     0.135207     0.908033     0.091994  Biso 1.000000     H
    H   1.0     0.635223     0.908001     0.091965  Biso 1.000000     H
    H   1.0     0.213238     0.849152     0.143060  Biso 1.000000     H
    H   1.0     0.713258     0.849099     0.143022  Biso 1.000000     H
    H   1.0     0.306194     0.921373     0.134729  Biso 1.000000     H
    H   1.0     0.806208     0.921346     0.134705  Biso 1.000000     H
    H   1.0     0.462966     0.115953     0.253492  Biso 1.000000     H
    H   1.0     0.963044     0.116008     0.253500  Biso 1.000000     H
    H   1.0     0.393602     0.363701     0.186446  Biso 1.000000     H
    H   1.0     0.893571     0.363640     0.186430  Biso 1.000000     H
    H   1.0     0.362096     0.431952     0.270121  Biso 1.000000     H
    H   1.0     0.862010     0.431851     0.270093  Biso 1.000000     H
    H   1.0     0.379162     0.338385     0.344680  Biso 1.000000     H
    H   1.0     0.879099     0.338304     0.344657  Biso 1.000000     H
    H   1.0     0.259292     0.118238     0.531428  Biso 1.000000     H
    H   1.0     0.759292     0.118243     0.531419  Biso 1.000000     H
    H   1.0     0.367852     0.908400     0.591578  Biso 1.000000     H
    H   1.0     0.867870     0.908479     0.591603  Biso 1.000000     H
    H   1.0     0.290844     0.848649     0.642529  Biso 1.000000     H
    H   1.0     0.790874     0.848752     0.642577  Biso 1.000000     H
    H   1.0     0.196938     0.920376     0.634339  Biso 1.000000     H
    H   1.0     0.696960     0.920449     0.634376  Biso 1.000000     H
    H   1.0     0.464597     0.884290     0.246702  Biso 1.000000     H
    H   1.0     0.964629     0.884279     0.246708  Biso 1.000000     H
    H   1.0     0.396551     0.637226     0.313203  Biso 1.000000     H
    H   1.0     0.896503     0.637286     0.313206  Biso 1.000000     H
    H   1.0     0.365271     0.569991     0.229387  Biso 1.000000     H
    H   1.0     0.865210     0.570070     0.229390  Biso 1.000000     H
    H   1.0     0.381485     0.663988     0.155054  Biso 1.000000     H
    H   1.0     0.881459     0.664046     0.155057  Biso 1.000000     H
    H   1.0     0.259137     0.881767     0.968408  Biso 1.000000     H
    H   1.0     0.759135     0.881783     0.968406  Biso 1.000000     H
    H   1.0     0.364831     0.091925     0.908035  Biso 1.000000     H
    H   1.0     0.864836     0.091947     0.908038  Biso 1.000000     H
    H   1.0     0.286840     0.150913     0.856945  Biso 1.000000     H
    H   1.0     0.786843     0.150945     0.856954  Biso 1.000000     H
    H   1.0     0.193857     0.078774     0.865247  Biso 1.000000     H
    H   1.0     0.693861     0.078804     0.865253  Biso 1.000000     H
    C   1.0     0.079037     0.777957     0.696154  Biso 1.000000     C
    C   1.0     0.578967     0.777941     0.696156  Biso 1.000000     C
    C   1.0     0.059947     0.814802     0.742643  Biso 1.000000     C
    C   1.0     0.559884     0.814783     0.742649  Biso 1.000000     C
    C   1.0     0.070335     0.763979     0.784926  Biso 1.000000     C
    C   1.0     0.570304     0.763969     0.784930  Biso 1.000000     C
    C   1.0     0.098658     0.674641     0.780351  Biso 1.000000     C
    C   1.0     0.598640     0.674645     0.780345  Biso 1.000000     C
    C   1.0     0.116687     0.637163     0.733847  Biso 1.000000     C
    C   1.0     0.616637     0.637156     0.733833  Biso 1.000000     C
    C   1.0     0.107557     0.688866     0.691887  Biso 1.000000     C
    C   1.0     0.607486     0.688852     0.691875  Biso 1.000000     C
    C   1.0     0.070627     0.834844     0.651320  Biso 1.000000     C
    C   1.0     0.570557     0.834834     0.651328  Biso 1.000000     C
    C   1.0     0.054854     0.808206     0.835250  Biso 1.000000     C
    C   1.0     0.554839     0.808203     0.835259  Biso 1.000000     C
    C   1.0     0.279731     0.975972     0.417002  Biso 1.000000     C
    C   1.0     0.779742     0.976007     0.417009  Biso 1.000000     C
    C   1.0     0.236017     0.940364     0.443990  Biso 1.000000     C
    C   1.0     0.736028     0.940395     0.443994  Biso 1.000000     C
    C   1.0     0.183871     0.982981     0.440952  Biso 1.000000     C
    C   1.0     0.683882     0.983019     0.440961  Biso 1.000000     C
    C   1.0     0.175215     0.058748     0.409493  Biso 1.000000     C
    C   1.0     0.675235     0.058835     0.409531  Biso 1.000000     C
    C   1.0     0.218360     0.092308     0.381582  Biso 1.000000     C
    C   1.0     0.718385     0.092418     0.381634  Biso 1.000000     C
    C   1.0     0.270771     0.052177     0.385826  Biso 1.000000     C
    C   1.0     0.770792     0.052262     0.385862  Biso 1.000000     C
    C   1.0     0.336132     0.936870     0.422588  Biso 1.000000     C
    C   1.0     0.836143     0.936890     0.422586  Biso 1.000000     C
    C   1.0     0.137970     0.955542     0.473902  Biso 1.000000     C
    C   1.0     0.637982     0.955571     0.473910  Biso 1.000000     C
    C   1.0     0.076322     0.221638     0.803972  Biso 1.000000     C
    C   1.0     0.576406     0.221663     0.803979  Biso 1.000000     C
    C   1.0     0.058149     0.185240     0.757165  Biso 1.000000     C
    C   1.0     0.558213     0.185248     0.757179  Biso 1.000000     C
    C   1.0     0.069048     0.236035     0.715100  Biso 1.000000     C
    C   1.0     0.569100     0.236026     0.715104  Biso 1.000000     C
    C   1.0     0.096891     0.324896     0.720192  Biso 1.000000     C
    C   1.0     0.596948     0.324885     0.720178  Biso 1.000000     C
    C   1.0     0.113974     0.361969     0.767016  Biso 1.000000     C
    C   1.0     0.614056     0.361962     0.766991  Biso 1.000000     C
    C   1.0     0.104409     0.310254     0.808757  Biso 1.000000     C
    C   1.0     0.604500     0.310270     0.808742  Biso 1.000000     C
    C   1.0     0.067602     0.164888     0.848698  Biso 1.000000     C
    C   1.0     0.567679     0.164944     0.848716  Biso 1.000000     C
    C   1.0     0.054543     0.192186     0.664527  Biso 1.000000     C
    C   1.0     0.554566     0.192182     0.664539  Biso 1.000000     C
    C   1.0     0.279006     0.024736     0.083176  Biso 1.000000     C
    C   1.0     0.779014     0.024745     0.083177  Biso 1.000000     C
    C   1.0     0.234709     0.059929     0.056167  Biso 1.000000     C
    C   1.0     0.734718     0.059942     0.056167  Biso 1.000000     C
    C   1.0     0.183142     0.016882     0.059185  Biso 1.000000     C
    C   1.0     0.683154     0.016876     0.059170  Biso 1.000000     C
    C   1.0     0.175625     0.941053     0.090648  Biso 1.000000     C
    C   1.0     0.675638     0.941039     0.090628  Biso 1.000000     C
    C   1.0     0.219350     0.907900     0.118591  Biso 1.000000     C
    C   1.0     0.719364     0.907862     0.118562  Biso 1.000000     C
    C   1.0     0.271214     0.948456     0.114360  Biso 1.000000     C
    C   1.0     0.771225     0.948433     0.114342  Biso 1.000000     C
    C   1.0     0.334836     0.064218     0.077484  Biso 1.000000     C
    C   1.0     0.834840     0.064228     0.077478  Biso 1.000000     C
    C   1.0     0.136803     0.044156     0.026193  Biso 1.000000     C
    C   1.0     0.636809     0.044169     0.026187  Biso 1.000000     C
    C   1.0     0.422412     0.222079     0.303737  Biso 1.000000     C
    C   1.0     0.922434     0.222078     0.303735  Biso 1.000000     C
    C   1.0     0.441148     0.185292     0.257128  Biso 1.000000     C
    C   1.0     0.941186     0.185308     0.257129  Biso 1.000000     C
    C   1.0     0.430340     0.236162     0.214936  Biso 1.000000     C
    C   1.0     0.930371     0.236165     0.214935  Biso 1.000000     C
    C   1.0     0.401934     0.325395     0.219706  Biso 1.000000     C
    C   1.0     0.901918     0.325353     0.219693  Biso 1.000000     C
    C   1.0     0.384235     0.362788     0.266328  Biso 1.000000     C
    C   1.0     0.884179     0.362716     0.266307  Biso 1.000000     C
    C   1.0     0.393798     0.311079     0.308205  Biso 1.000000     C
    C   1.0     0.893760     0.311022     0.308187  Biso 1.000000     C
    C   1.0     0.431270     0.165385     0.348559  Biso 1.000000     C
    C   1.0     0.931284     0.165381     0.348561  Biso 1.000000     C
    C   1.0     0.445493     0.192086     0.164512  Biso 1.000000     C
    C   1.0     0.945521     0.192096     0.164510  Biso 1.000000     C
    C   1.0     0.222546     0.024128     0.582911  Biso 1.000000     C
    C   1.0     0.722557     0.024166     0.582927  Biso 1.000000     C
    C   1.0     0.266259     0.059780     0.555936  Biso 1.000000     C
    C   1.0     0.766263     0.059801     0.555936  Biso 1.000000     C
    C   1.0     0.318384     0.017075     0.558905  Biso 1.000000     C
    C   1.0     0.818394     0.017124     0.558919  Biso 1.000000     C
    C   1.0     0.327006     0.941122     0.590266  Biso 1.000000     C
    C   1.0     0.827021     0.941186     0.590288  Biso 1.000000     C
    C   1.0     0.283856     0.907484     0.618144  Biso 1.000000     C
    C   1.0     0.783876     0.907555     0.618175  Biso 1.000000     C
    C   1.0     0.231466     0.947733     0.613980  Biso 1.000000     C
    C   1.0     0.731484     0.947794     0.614008  Biso 1.000000     C
    C   1.0     0.166182     0.063356     0.577389  Biso 1.000000     C
    C   1.0     0.666190     0.063369     0.577391  Biso 1.000000     C
    C   1.0     0.364355     0.044745     0.526080  Biso 1.000000     C
    C   1.0     0.864359     0.044766     0.526078  Biso 1.000000     C
    C   1.0     0.424339     0.779259     0.196228  Biso 1.000000     C
    C   1.0     0.924348     0.779278     0.196233  Biso 1.000000     C
    C   1.0     0.443072     0.815362     0.242907  Biso 1.000000     C
    C   1.0     0.943084     0.815371     0.242912  Biso 1.000000     C
    C   1.0     0.432581     0.764404     0.284994  Biso 1.000000     C
    C   1.0     0.932584     0.764419     0.284998  Biso 1.000000     C
    C   1.0     0.404623     0.675636     0.280034  Biso 1.000000     C
    C   1.0     0.904587     0.675689     0.280037  Biso 1.000000     C
    C   1.0     0.386997     0.638847     0.233331  Biso 1.000000     C
    C   1.0     0.886955     0.638908     0.233334  Biso 1.000000     C
    C   1.0     0.396128     0.690767     0.191580  Biso 1.000000     C
    C   1.0     0.896106     0.690817     0.191583  Biso 1.000000     C
    C   1.0     0.432685     0.836170     0.151512  Biso 1.000000     C
    C   1.0     0.932687     0.836186     0.151518  Biso 1.000000     C
    C   1.0     0.447531     0.808021     0.335505  Biso 1.000000     C
    C   1.0     0.947531     0.808037     0.335513  Biso 1.000000     C
    C   1.0     0.220987     0.975396     0.916801  Biso 1.000000     C
    C   1.0     0.720990     0.975428     0.916812  Biso 1.000000     C
    C   1.0     0.265258     0.940125     0.943818  Biso 1.000000     C
    C   1.0     0.765264     0.940145     0.943820  Biso 1.000000     C
    C   1.0     0.316844     0.983109     0.940811  Biso 1.000000     C
    C   1.0     0.816850     0.983124     0.940807  Biso 1.000000     C
    C   1.0     0.324401     0.058941     0.909358  Biso 1.000000     C
    C   1.0     0.824404     0.058970     0.909363  Biso 1.000000     C
    C   1.0     0.280701     0.092168     0.881409  Biso 1.000000     C
    C   1.0     0.780704     0.092192     0.881413  Biso 1.000000     C
    C   1.0     0.228822     0.051674     0.885627  Biso 1.000000     C
    C   1.0     0.728825     0.051698     0.885634  Biso 1.000000     C
    C   1.0     0.165133     0.936049     0.922496  Biso 1.000000     C
    C   1.0     0.665134     0.936069     0.922493  Biso 1.000000     C
    C   1.0     0.363163     0.955814     0.973818  Biso 1.000000     C
    C   1.0     0.863166     0.955829     0.973815  Biso 1.000000     C
    O   1.0     0.038680     0.908574     0.656282  Biso 1.000000     O
    O   1.0     0.538567     0.908509     0.656278  Biso 1.000000     O
    O   1.0     0.097269     0.804789     0.612178  Biso 1.000000     O
    O   1.0     0.597231     0.804835     0.612192  Biso 1.000000     O
    O   1.0     0.025236     0.885593     0.836374  Biso 1.000000     O
    O   1.0     0.525213     0.885574     0.836385  Biso 1.000000     O
    O   1.0     0.073950     0.766893     0.872690  Biso 1.000000     O
    O   1.0     0.573958     0.766895     0.872692  Biso 1.000000     O
    O   1.0     0.343116     0.857072     0.444205  Biso 1.000000     O
    O   1.0     0.843121     0.857093     0.444207  Biso 1.000000     O
    O   1.0     0.377168     0.983381     0.406427  Biso 1.000000     O
    O   1.0     0.877178     0.983400     0.406426  Biso 1.000000     O
    O   1.0     0.146446     0.880112     0.499698  Biso 1.000000     O
    O   1.0     0.646458     0.880135     0.499702  Biso 1.000000     O
    O   1.0     0.095673     0.000000     0.477037  Biso 1.000000     O
    O   1.0     0.595675     0.000000     0.477046  Biso 1.000000     O
    O   1.0     0.492695     0.896148     0.448651  Biso 1.000000     O
    O   1.0     0.992698     0.896134     0.448655  Biso 1.000000     O
    O   1.0     0.016339     0.915375     0.552059  Biso 1.000000     O
    O   1.0     0.516348     0.915404     0.552056  Biso 1.000000     O
    O   1.0     0.035435     0.092471     0.843732  Biso 1.000000     O
    O   1.0     0.535570     0.092460     0.843733  Biso 1.000000     O
    O   1.0     0.094391     0.194052     0.887860  Biso 1.000000     O
    O   1.0     0.594406     0.194225     0.887897  Biso 1.000000     O
    O   1.0     0.025294     0.115305     0.662978  Biso 1.000000     O
    O   1.0     0.525319     0.115299     0.662998  Biso 1.000000     O
    O   1.0     0.073934     0.233124     0.627338  Biso 1.000000     O
    O   1.0     0.573933     0.233118     0.627337  Biso 1.000000     O
    O   1.0     0.340826     0.144070     0.055939  Biso 1.000000     O
    O   1.0     0.840825     0.144089     0.055939  Biso 1.000000     O
    O   1.0     0.376575     0.017720     0.093480  Biso 1.000000     O
    O   1.0     0.876593     0.017747     0.093469  Biso 1.000000     O
    O   1.0     0.144401     0.119453     0.000000  Biso 1.000000     O
    O   1.0     0.644409     0.119463     0.000000  Biso 1.000000     O
    O   1.0     0.095009    -0.008757     0.023085  Biso 1.000000     O
    O   1.0     0.595016    -0.008745     0.023093  Biso 1.000000     O
    O   1.0     0.490965     0.103945     0.051348  Biso 1.000000     O
    O   1.0     0.990976     0.103927     0.051377  Biso 1.000000     O
    O   1.0     0.014269     0.084747     0.947950  Biso 1.000000     O
    O   1.0     0.514271     0.084763     0.947958  Biso 1.000000     O
    O   1.0     0.463243     0.091749     0.343664  Biso 1.000000     O
    O   1.0     0.963255     0.091743     0.343670  Biso 1.000000     O
    O   1.0     0.404824     0.195851     0.387776  Biso 1.000000     O
    O   1.0     0.904823     0.195860     0.387766  Biso 1.000000     O
    O   1.0     0.475290     0.114931     0.163187  Biso 1.000000     O
    O   1.0     0.975334     0.114953     0.163175  Biso 1.000000     O
    O   1.0     0.426008     0.233289     0.127199  Biso 1.000000     O
    O   1.0     0.926022     0.233284     0.127198  Biso 1.000000     O
    O   1.0     0.159147     0.143125     0.555806  Biso 1.000000     O
    O   1.0     0.659148     0.143131     0.555803  Biso 1.000000     O
    O   1.0     0.125125     0.016846     0.593600  Biso 1.000000     O
    O   1.0     0.625132     0.016851     0.593597  Biso 1.000000     O
    O   1.0     0.355988     0.120383     0.500430  Biso 1.000000     O
    O   1.0     0.855995     0.120406     0.500429  Biso 1.000000     O
    O   1.0     0.406634    -0.008291     0.523041  Biso 1.000000     O
    O   1.0     0.906628    -0.008288     0.523038  Biso 1.000000     O
    O   1.0     0.009378     0.104176     0.551495  Biso 1.000000     O
    O   1.0     0.509382     0.104147     0.551502  Biso 1.000000     O
    O   1.0     0.485637     0.085223     0.448010  Biso 1.000000     O
    O   1.0     0.985643     0.085262     0.448014  Biso 1.000000     O
    O   1.0     0.465177     0.908148     0.156284  Biso 1.000000     O
    O   1.0     0.965179     0.908173     0.156284  Biso 1.000000     O
    O   1.0     0.405348     0.807633     0.112581  Biso 1.000000     O
    O   1.0     0.905355     0.807656     0.112583  Biso 1.000000     O
    O   1.0     0.476809     0.884867     0.337022  Biso 1.000000     O
    O   1.0     0.976814     0.884877     0.337031  Biso 1.000000     O
    O   1.0     0.428383     0.766864     0.372732  Biso 1.000000     O
    O   1.0     0.928381     0.766864     0.372731  Biso 1.000000     O
    O   1.0     0.159116     0.856170     0.944014  Biso 1.000000     O
    O   1.0     0.659113     0.856192     0.944009  Biso 1.000000     O
    O   1.0     0.123414     0.982630     0.906517  Biso 1.000000     O
    O   1.0     0.623427     0.982665     0.906508  Biso 1.000000     O
    O   1.0     0.355544     0.880539    -0.000320  Biso 1.000000     O
    O   1.0     0.855549     0.880549    -0.000326  Biso 1.000000     O
    O   1.0     0.404958     0.000000     0.976921  Biso 1.000000     O
    O   1.0     0.904967     0.000000     0.976929  Biso 1.000000     O
    O   1.0     0.009005     0.896097     0.948445  Biso 1.000000     O
    O   1.0     0.509016     0.896078     0.948482  Biso 1.000000     O
    O   1.0     0.485735     0.915151     0.051919  Biso 1.000000     O
    O   1.0     0.985734     0.915159     0.051931  Biso 1.000000     O
   Zn   1.0     0.092625     0.878660     0.551955  Biso 1.000000    Zn
   Zn   1.0     0.592638     0.878678     0.551960  Biso 1.000000    Zn
   Zn   1.0     0.423315     0.842145     0.439280  Biso 1.000000    Zn
   Zn   1.0     0.923322     0.842136     0.439288  Biso 1.000000    Zn
   Zn   1.0     0.481424     0.987617     0.391460  Biso 1.000000    Zn
   Zn   1.0     0.981424     0.987620     0.391477  Biso 1.000000    Zn
   Zn   1.0     0.090268     0.121017     0.948106  Biso 1.000000    Zn
   Zn   1.0     0.590255     0.121059     0.948110  Biso 1.000000    Zn
   Zn   1.0     0.421067     0.157927     0.060691  Biso 1.000000    Zn
   Zn   1.0     0.921062     0.157915     0.060699  Biso 1.000000    Zn
   Zn   1.0     0.481448     0.012569     0.108594  Biso 1.000000    Zn
   Zn   1.0     0.981445     0.012567     0.108599  Biso 1.000000    Zn
   Zn   1.0     0.409676     0.123726     0.448182  Biso 1.000000    Zn
   Zn   1.0     0.909692     0.123786     0.448189  Biso 1.000000    Zn
   Zn   1.0     0.078893     0.157833     0.560696  Biso 1.000000    Zn
   Zn   1.0     0.578898     0.157820     0.560703  Biso 1.000000    Zn
   Zn   1.0     0.020705     0.012623     0.608617  Biso 1.000000    Zn
   Zn   1.0     0.520697     0.012627     0.608633  Biso 1.000000    Zn
   Zn   1.0     0.409725     0.879166     0.051893  Biso 1.000000    Zn
   Zn   1.0     0.909711     0.879187     0.051898  Biso 1.000000    Zn
   Zn   1.0     0.078927     0.842137     0.939248  Biso 1.000000    Zn
   Zn   1.0     0.578921     0.842124     0.939259  Biso 1.000000    Zn
   Zn   1.0     0.018689     0.987523     0.891211  Biso 1.000000    Zn
   Zn   1.0     0.518692     0.987527     0.891219  Biso 1.000000    Zn
   Zn   1.0     0.000478     0.000175     0.500084  Biso 1.000000    Zn
   Zn   1.0     0.500482     0.000172     0.500082  Biso 1.000000    Zn
   Zn   1.0    -0.000007    -0.000038    -0.000064  Biso 1.000000    Zn
   Zn   1.0     0.500003    -0.000035     0.999947  Biso 1.000000    Zn
