#======================================================================

# CRYSTAL DATA

#----------------------------------------------------------------------

data_VESTA_phase_1


_pd_phase_name                         MOF
_cell_length_a                         17.56400
_cell_length_b                         17.56400
_cell_length_c                         17.56400
_cell_angle_alpha                      82.99000
_cell_angle_beta                       82.99000
_cell_angle_gamma                      82.99000
_symmetry_space_group_name_H-M         "P 1"
_symmetry_Int_Tables_number            1

loop_
_symmetry_equiv_pos_as_xyz
   "x, y, z"

loop_
   _atom_site_label
   _atom_site_occupancy
   _atom_site_fract_x
   _atom_site_fract_y
   _atom_site_fract_z
   _atom_site_adp_type
   _atom_site_B_iso_or_equiv
   _atom_site_type_symbol
    H   1.0     0.149529     0.526522     0.513666  Biso 1.000000     H
    H   1.0    -0.003515     0.036218     0.656235  Biso 1.000000     H
    H   1.0     0.818821     0.392023     0.284268  Biso 1.000000     H
    H   1.0     0.604009     0.441931     0.050542  Biso 1.000000     H
    H   1.0     0.855059     0.496575     0.483422  Biso 1.000000     H
    H   1.0     0.370029     0.754099     0.881881  Biso 1.000000     H
    H   1.0     0.471514     0.615877     0.060973  Biso 1.000000     H
    H   1.0     0.423106     0.926166     0.893954  Biso 1.000000     H
    H   1.0     0.436803     0.331190     0.065158  Biso 1.000000     H
    H   1.0     0.502072     0.783509     0.825398  Biso 1.000000     H
    H   1.0     0.347440     0.786614     0.730102  Biso 1.000000     H
    H   1.0     0.062762     0.437408     0.331893  Biso 1.000000     H
    H   1.0     0.957306     0.567982     0.405337  Biso 1.000000     H
    H   1.0     0.888864     0.426846     0.928874  Biso 1.000000     H
    H   1.0     0.886889     0.292200     0.182668  Biso 1.000000     H
    H   1.0     0.186182     0.725552     0.618181  Biso 1.000000     H
    H   1.0     0.914541     0.774900     0.338875  Biso 1.000000     H
    H   1.0     0.924006     0.892464     0.429099  Biso 1.000000     H
    H   1.0     0.348239     0.406642     0.999405  Biso 1.000000     H
    H   1.0     0.236835     0.869732     0.642816  Biso 1.000000     H
    H   1.0     0.996196     0.351858     0.409097  Biso 1.000000     H
    H   1.0     0.219848     0.658238     0.281647  Biso 1.000000     H
    H   1.0     0.564661     0.402659     0.960810  Biso 1.000000     H
    H   1.0     0.289427     0.180903     0.889458  Biso 1.000000     H
    H   1.0     0.638665     0.239372     0.872224  Biso 1.000000     H
    H   1.0     0.000000     0.353288     0.973974  Biso 1.000000     H
    H   1.0     0.035912     0.655319    -0.001448  Biso 1.000000     H
    H   1.0     0.223874     0.503445     0.186577  Biso 1.000000     H
    H   1.0     0.424512     0.378205     0.193633  Biso 1.000000     H
    H   1.0     0.567642     0.944521     0.680125  Biso 1.000000     H
    H   1.0     0.127182     0.253590     0.636185  Biso 1.000000     H
    H   1.0     0.657267     0.280767     0.222710  Biso 1.000000     H
    H   1.0     0.090088     0.671683     0.235395  Biso 1.000000     H
    H   1.0     0.008264     0.600451     0.658478  Biso 1.000000     H
    H   1.0     0.232836     0.091096     0.672788  Biso 1.000000     H
    H   1.0     0.117508     0.826190     0.718266  Biso 1.000000     H
    H   1.0     0.671074     0.234877     0.092775  Biso 1.000000     H
    H   1.0     0.365328     0.137867     0.770126  Biso 1.000000     H
    H   1.0     0.388315     0.282221     0.822221  Biso 1.000000     H
    H   1.0     0.439613     0.049627     0.606387  Biso 1.000000     H
    H   1.0     0.615758     0.188023     0.727314  Biso 1.000000     H
    H   1.0     0.580140     0.816173     0.632796  Biso 1.000000     H
    H   1.0     0.600069     0.657856     0.012138  Biso 1.000000     H
    H   1.0     0.941974     0.678141     0.573052  Biso 1.000000     H
    H   1.0     0.278699     0.221017     0.659442  Biso 1.000000     H
    H   1.0     0.968898     0.000000     0.355541  Biso 1.000000     H
    H   1.0     0.511282     0.151623     0.528167  Biso 1.000000     H
    H   1.0     0.135623     0.768499     0.368168  Biso 1.000000     H
    H   1.0     0.191065     0.425474     0.379249  Biso 1.000000     H
    H   1.0     0.080754     0.581573     0.117703  Biso 1.000000     H
    H   1.0     0.404708     0.997765     0.353238  Biso 1.000000     H
    H   1.0     0.803485     0.548172     0.086339  Biso 1.000000     H
    H   1.0     0.767520     0.367656     0.139191  Biso 1.000000     H
    H   1.0     0.771596     0.336418     0.918794  Biso 1.000000     H
    H   1.0     0.329819     0.063947     0.438621  Biso 1.000000     H
    H   1.0     0.869028     0.642172     0.241617  Biso 1.000000     H
    H   1.0     0.082489     0.804443     0.548576  Biso 1.000000     H
    H   1.0     0.820531     0.505089     0.785693  Biso 1.000000     H
    H   1.0     0.674367     0.570407     0.946483  Biso 1.000000     H
    H   1.0     0.634454     0.129227     0.255287  Biso 1.000000     H
    H   1.0     0.333417     0.916442     0.776266  Biso 1.000000     H
    H   1.0     0.784780     0.728658     0.352316  Biso 1.000000     H
    H   1.0     0.493102     0.481093     0.858858  Biso 1.000000     H
    H   1.0     0.655674    -0.001644     0.037781  Biso 1.000000     H
    H   1.0     0.376779     0.192410     0.426775  Biso 1.000000     H
    H   1.0     0.581593     0.117225     0.082874  Biso 1.000000     H
    H   1.0     0.877397     0.373166     0.756256  Biso 1.000000     H
    H   1.0     0.057518     0.472010     0.616445  Biso 1.000000     H
    H   1.0     0.201228     0.923759     0.462242  Biso 1.000000     H
    H   1.0     0.400383     0.958387     0.569620  Biso 1.000000     H
    H   1.0     0.656014     0.010883     0.602543  Biso 1.000000     H
    H   1.0     0.614327     0.059951     0.473920  Biso 1.000000     H
    H   1.0     0.389959     0.535303     0.950589  Biso 1.000000     H
    H   1.0     0.253068     0.635572     0.130193  Biso 1.000000     H
    H   1.0     0.525585     0.512948     0.152881  Biso 1.000000     H
    H   1.0     0.545781     0.084575     0.806188  Biso 1.000000     H
    H   1.0     0.502406     0.185674     0.225842  Biso 1.000000     H
    H   1.0     0.725842     0.350057     0.788799  Biso 1.000000     H
    H   1.0     0.115585     0.081393     0.582715  Biso 1.000000     H
    H   1.0     0.714698     0.120288     0.828777  Biso 1.000000     H
    H   1.0     0.533254     0.948910     0.395236  Biso 1.000000     H
    H   1.0     0.813677     0.630773     0.584974  Biso 1.000000     H
    H   1.0     0.280475     0.820572     0.392201  Biso 1.000000     H
    H   1.0     0.627498     0.582530     0.817948  Biso 1.000000     H
    H   1.0     0.922483     0.461795     0.205510  Biso 1.000000     H
    H   1.0     0.178887     0.887935     0.292693  Biso 1.000000     H
    H   1.0     0.349157     0.970857     0.000000  Biso 1.000000     H
    H   1.0     0.047213     0.604720     0.442454  Biso 1.000000     H
    H   1.0     0.751933     0.880055     0.375517  Biso 1.000000     H
    H   1.0     0.724381     0.617563     0.190067  Biso 1.000000     H
    H   1.0     0.825803     0.717820     0.122247  Biso 1.000000     H
    H   1.0     0.478990     0.856661     0.497880  Biso 1.000000     H
    H   1.0     0.781091     0.823374     0.507581  Biso 1.000000     H
    H   1.0     0.946839     0.393390     0.537723  Biso 1.000000     H
    H   1.0     0.458132     0.203152     0.925676  Biso 1.000000     H
    H   1.0     0.184090     0.224635     0.504125  Biso 1.000000     H
    C   1.0     0.088832     0.286814     0.448144  Biso 1.000000     C
    C   1.0     0.831700     0.439002     0.388894  Biso 1.000000     C
    C   1.0     0.728845     0.909307     0.425948  Biso 1.000000     C
    C   1.0     0.387652     0.894173     0.745541  Biso 1.000000     C
    C   1.0     0.557982     0.720975     0.920540  Biso 1.000000     C
    C   1.0     0.395304     0.821916     0.719359  Biso 1.000000     C
    C   1.0     0.907716     0.469103     0.266469  Biso 1.000000     C
    C   1.0     0.946767     0.518599     0.300895  Biso 1.000000     C
    C   1.0     0.673596     0.466920     0.794704  Biso 1.000000     C
    C   1.0     0.319436     0.097925     0.487337  Biso 1.000000     C
    C   1.0     0.907942     0.645597     0.188351  Biso 1.000000     C
    C   1.0     0.400859     0.023908     0.823965  Biso 1.000000     C
    C   1.0     0.629896     0.481811     0.079791  Biso 1.000000     C
    C   1.0     0.510841     0.130748     0.261452  Biso 1.000000     C
    C   1.0     0.345862     0.169920     0.480784  Biso 1.000000     C
    C   1.0     0.018163     0.333543     0.458248  Biso 1.000000     C
    C   1.0     0.907974     0.688380     0.524350  Biso 1.000000     C
    C   1.0     0.671530     0.988971     0.553412  Biso 1.000000     C
    C   1.0     0.485442     0.320965     0.099241  Biso 1.000000     C
    C   1.0     0.112515     0.617564     0.266210  Biso 1.000000     C
    C   1.0     0.608287     0.238858     0.576143  Biso 1.000000     C
    C   1.0     0.767669     0.399818     0.435339  Biso 1.000000     C
    C   1.0     0.850230     0.430037     0.310267  Biso 1.000000     C
    C   1.0     0.121017     0.888395     0.323145  Biso 1.000000     C
    C   1.0     0.956868     0.319338     0.075618  Biso 1.000000     C
    C   1.0     0.237187     0.574455     0.610281  Biso 1.000000     C
    C   1.0     0.745415     0.878264     0.499181  Biso 1.000000     C
    C   1.0     0.410122     0.680187     0.980051  Biso 1.000000     C
    C   1.0     0.133393     0.587011     0.521975  Biso 1.000000     C
    C   1.0     0.901005     0.731530     0.992895  Biso 1.000000     C
    C   1.0     0.892143     0.744024     0.392972  Biso 1.000000     C
    C   1.0     0.306232     0.851855     0.430508  Biso 1.000000     C
    C   1.0     0.489006     0.060218     0.710808  Biso 1.000000     C
    C   1.0     0.741338     0.887666     0.641227  Biso 1.000000     C
    C   1.0     0.431574     0.769712     0.400281  Biso 1.000000     C
    C   1.0     0.790586     0.676595     0.469250  Biso 1.000000     C
    C   1.0     0.884833     0.638847     0.746582  Biso 1.000000     C
    C   1.0     0.333020     0.457993     0.020639  Biso 1.000000     C
    C   1.0     0.515094     0.298372     0.950114  Biso 1.000000     C
    C   1.0     0.821702     0.403547     0.025487  Biso 1.000000     C
    C   1.0     0.289675     0.185907     0.611430  Biso 1.000000     C
    C   1.0     0.611726     0.118747     0.024766  Biso 1.000000     C
    C   1.0     0.525978     0.838439     0.663606  Biso 1.000000     C
    C   1.0     0.296260     0.947934     0.519637  Biso 1.000000     C
    C   1.0     0.000000     0.653079     0.052233  Biso 1.000000     C
    C   1.0     0.330836     0.215380     0.542507  Biso 1.000000     C
    C   1.0     0.076348     0.630716     0.482343  Biso 1.000000     C
    C   1.0     0.714784     0.397960     0.824046  Biso 1.000000     C
    C   1.0     0.097895     0.276559     0.585744  Biso 1.000000     C
    C   1.0     0.619910     0.570541     0.176717  Biso 1.000000     C
    C   1.0     0.286133     0.447717     0.091189  Biso 1.000000     C
    C   1.0     0.484783     0.420598     0.874940  Biso 1.000000     C
    C   1.0     0.688218     0.050289     0.935967  Biso 1.000000     C
    C   1.0     0.262150     0.909051     0.469758  Biso 1.000000     C
    C   1.0     0.096741     0.821792     0.364861  Biso 1.000000     C
    C   1.0     0.740725     0.390520     0.896401  Biso 1.000000     C
    C   1.0     0.603361     0.185202     0.986101  Biso 1.000000     C
    C   1.0     0.316166     0.073578     0.959136  Biso 1.000000     C
    C   1.0     0.420441     0.731062     0.911185  Biso 1.000000     C
    C   1.0     0.047279     0.000000     0.653943  Biso 1.000000     C
    C   1.0    -0.003521     0.957976     0.357675  Biso 1.000000     C
    C   1.0     0.875513     0.496814     0.750140  Biso 1.000000     C
    C   1.0     0.928289     0.528032     0.379298  Biso 1.000000     C
    C   1.0     0.642253     0.186053     0.911053  Biso 1.000000     C
    C   1.0     0.374608     0.929523     0.529350  Biso 1.000000     C
    C   1.0     0.650341     0.475031     0.715621  Biso 1.000000     C
    C   1.0     0.538510     0.099274     0.745213  Biso 1.000000     C
    C   1.0     0.684285     0.119640     0.886674  Biso 1.000000     C
    C   1.0     0.519518     0.135468     0.588672  Biso 1.000000     C
    C   1.0     0.708295     0.491367     0.061564  Biso 1.000000     C
    C   1.0     0.742524     0.540772     0.100907  Biso 1.000000     C
    C   1.0     0.392885     0.984227     0.892625  Biso 1.000000     C
    C   1.0     0.819926     0.717805     0.400300  Biso 1.000000     C
    C   1.0     0.726382     0.452825     0.941676  Biso 1.000000     C
    C   1.0     0.326675     0.595693     0.031745  Biso 1.000000     C
    C   1.0     0.103621     0.018244     0.277070  Biso 1.000000     C
    C   1.0     0.276456     0.104738     0.018761  Biso 1.000000     C
    C   1.0     0.214108     0.541239     0.333549  Biso 1.000000     C
    C   1.0     0.718542     0.918481     0.563530  Biso 1.000000     C
    C   1.0     0.836081     0.661727     0.530948  Biso 1.000000     C
    C   1.0     0.982090     0.891136     0.398927  Biso 1.000000     C
    C   1.0     0.986317     0.551270     0.676700  Biso 1.000000     C
    C   1.0     0.116994     0.023233     0.612714  Biso 1.000000     C
    C   1.0     0.293076     0.533283     0.357052  Biso 1.000000     C
    C   1.0     0.182823     0.983713     0.607635  Biso 1.000000     C
    C   1.0     0.547840     0.673914     0.990998  Biso 1.000000     C
    C   1.0     0.449908     0.939518     0.731615  Biso 1.000000     C
    C   1.0     0.168640     0.479519     0.348346  Biso 1.000000     C
    C   1.0     0.658453     0.528501     0.840338  Biso 1.000000     C
    C   1.0     0.418542     0.872829     0.489404  Biso 1.000000     C
    C   1.0     0.684821     0.521795     0.912369  Biso 1.000000     C
    C   1.0     0.276027     0.585230     0.100747  Biso 1.000000     C
    C   1.0     0.368902     0.121045     0.265090  Biso 1.000000     C
    C   1.0     0.057976     0.709126     0.491800  Biso 1.000000     C
    C   1.0     0.097165     0.743481     0.541235  Biso 1.000000     C
    C   1.0     0.915728     0.561234     0.723584  Biso 1.000000     C
    C   1.0     0.584061     0.099835     0.278178  Biso 1.000000     C
    C   1.0     0.154677     0.699609     0.580209  Biso 1.000000     C
    C   1.0     0.319917     0.123050     0.889900  Biso 1.000000     C
    C   1.0     0.183525     0.908579     0.646308  Biso 1.000000     C
    C   1.0     0.937287     0.729948     0.455381  Biso 1.000000     C
    C   1.0     0.456719     0.019807     0.334987  Biso 1.000000     C
    C   1.0     0.586070     0.521333     0.136847  Biso 1.000000     C
    C   1.0     0.609344     0.291600     0.187486  Biso 1.000000     C
    C   1.0     0.119745     0.264135     0.370432  Biso 1.000000     C
    C   1.0     0.957328     0.357601     0.000507  Biso 1.000000     C
    C   1.0     0.464431     0.792747     0.678324  Biso 1.000000     C
    C   1.0     0.263671     0.113590     0.618707  Biso 1.000000     C
    C   1.0     0.871282     0.488298     0.422936  Biso 1.000000     C
    C   1.0     0.933119     0.691146     0.052522  Biso 1.000000     C
    C   1.0     0.678054     0.978226     0.415635  Biso 1.000000     C
    C   1.0     0.568888     0.175004     0.622672  Biso 1.000000     C
    C   1.0     0.728164     0.989946     0.906881  Biso 1.000000     C
    C   1.0     0.540258     0.332573     0.216838  Biso 1.000000     C
    C   1.0     0.047655     0.933485     0.691838  Biso 1.000000     C
    C   1.0     0.067416     0.555118     0.280194  Biso 1.000000     C
    C   1.0     0.573239     0.609481     0.240777  Biso 1.000000     C
    C   1.0     0.022660     0.611724     0.119037  Biso 1.000000     C
    C   1.0     0.594401     0.030860     0.328890  Biso 1.000000     C
    C   1.0     0.173119     0.620981     0.571207  Biso 1.000000     C
    C   1.0     0.384827     0.833446     0.439684  Biso 1.000000     C
    C   1.0     0.651209     0.005693     0.481648  Biso 1.000000     C
    C   1.0     0.493665     0.747775     0.880253  Biso 1.000000     C
    C   1.0     0.635674     0.743888     0.889879  Biso 1.000000     C
    C   1.0     0.616875     0.265574     0.115168  Biso 1.000000     C
    C   1.0     0.478641     0.347426     0.171238  Biso 1.000000     C
    C   1.0     0.003198     0.479606     0.653255  Biso 1.000000     C
    C   1.0     0.519059     0.910364     0.690239  Biso 1.000000     C
    C   1.0     0.982973     0.606700     0.187725  Biso 1.000000     C
    C   1.0     0.446560     0.090351     0.288068  Biso 1.000000     C
    C   1.0     0.975699     0.413504     0.682756  Biso 1.000000     C
    C   1.0     0.525501     0.000000     0.358418  Biso 1.000000     C
    C   1.0     0.028781     0.327081     0.596039  Biso 1.000000     C
    C   1.0     0.883692     0.687415     0.121788  Biso 1.000000     C
    C   1.0     0.017378     0.276780     0.104709  Biso 1.000000     C
    C   1.0     0.129070     0.260100     0.512511  Biso 1.000000     C
    C   1.0     0.116982     0.884153     0.688021  Biso 1.000000     C
    C   1.0     0.277929     0.068470     0.556279  Biso 1.000000     C
    C   1.0     0.906654     0.423657     0.733405  Biso 1.000000     C
    C   1.0     0.698536     0.579625     0.158436  Biso 1.000000     C
    C   1.0     0.479246     0.652821     0.006757  Biso 1.000000     C
    C   1.0     0.396117     0.433383     0.771444  Biso 1.000000     C
    C   1.0     0.887409     0.396527     0.986899  Biso 1.000000     C
    C   1.0     0.259430     0.511955     0.131628  Biso 1.000000     C
    C   1.0     0.426392     0.308087     0.853671  Biso 1.000000     C
    C   1.0     0.820906     0.364457     0.100444  Biso 1.000000     C
    C   1.0     0.524605     0.376770     0.931783  Biso 1.000000     C
    C   1.0     0.650139     0.049780     0.000000  Biso 1.000000     C
    C   1.0     0.987163     0.904379     0.734451  Biso 1.000000     C
    C   1.0     0.465505     0.264110     0.911028  Biso 1.000000     C
    C   1.0     0.354350    -0.001553     0.959406  Biso 1.000000     C
    C   1.0     0.472711     0.713759     0.654808  Biso 1.000000     C
    C   1.0     0.887461     0.322750     0.124835  Biso 1.000000     C
    C   1.0     0.361874     0.098902     0.823357  Biso 1.000000     C
    C   1.0     0.353175     0.527464     0.000000  Biso 1.000000     C
    C   1.0     0.354237     0.294397     0.534616  Biso 1.000000     C
    C   1.0     0.184732     0.610230     0.292432  Biso 1.000000     C
    C   1.0     0.435362     0.386734     0.835343  Biso 1.000000     C
    C   1.0     0.071651     0.957707     0.319588  Biso 1.000000     C
    C   1.0     0.096745     0.486122     0.321700  Biso 1.000000     C
    C   1.0     0.263288     0.369980     0.121832  Biso 1.000000     C
    C   1.0     0.021740     0.822416     0.403828  Biso 1.000000     C
    C   1.0     0.000000     0.356708     0.530010  Biso 1.000000     C
    C   1.0     0.479605     0.078631     0.632392  Biso 1.000000     C
    C   1.0     0.711623     0.653076     0.477171  Biso 1.000000     C
    C   1.0     0.554540     0.279609     0.069925  Biso 1.000000     C
    C   1.0     0.532113     0.355876     0.295898  Biso 1.000000     C
    C   1.0     0.577730     0.156609     0.701340  Biso 1.000000     C
    N   1.0    -0.003143     0.340821     0.668784  Biso 1.000000     N
    N   1.0     0.557266     0.252812     0.000000  Biso 1.000000     N
    N   1.0     0.753931     0.449362     0.004038  Biso 1.000000     N
    N   1.0     0.000425     0.754616     0.449705  Biso 1.000000     N
    N   1.0     0.250586     0.000000     0.561891  Biso 1.000000     N
    N   1.0     0.000000     0.560779     0.255489  Biso 1.000000     N
    N   1.0     0.340516     0.668500     0.000098  Biso 1.000000     N
    N   1.0     0.446855     0.002657     0.756223  Biso 1.000000     N
    N   1.0     0.667155    -0.000788     0.342877  Biso 1.000000     N
    O   1.0     0.668934     0.681050     0.425295  Biso 1.000000     O
    O   1.0     0.835273     0.771599     0.000000  Biso 1.000000     O
    O   1.0     0.278377     0.611056     0.645200  Biso 1.000000     O
    O   1.0     0.768415     0.999121     0.841268  Biso 1.000000     O
    O   1.0     0.500739     0.604034     0.249309  Biso 1.000000     O
    O   1.0     0.582145     0.423488     0.505895  Biso 1.000000     O
    O   1.0     0.061485     0.082408     0.284181  Biso 1.000000     O
    O   1.0     0.811230     0.654585     0.755560  Biso 1.000000     O
    O   1.0     0.502049     0.585087     0.426163  Biso 1.000000     O
    O   1.0     0.749570     0.937125     0.686390  Biso 1.000000     O
    O   1.0     0.335739     0.585219     0.329220  Biso 1.000000     O
    O   1.0     0.996191     0.838696     0.774593  Biso 1.000000     O
    O   1.0     0.603665     0.247148     0.503503  Biso 1.000000     O
    O   1.0     0.583961     0.327951     0.338638  Biso 1.000000     O
    O   1.0     0.070302     0.255950     0.325218  Biso 1.000000     O
    O   1.0     0.254229     0.354059     0.195420  Biso 1.000000     O
    O   1.0     0.680683     0.752131     0.939486  Biso 1.000000     O
    O   1.0     0.472142     0.403022     0.315443  Biso 1.000000     O
    O   1.0     0.193342     0.255060     0.354698  Biso 1.000000     O
    O   1.0     0.254947     0.324969     0.072272  Biso 1.000000     O
    O   1.0     0.401456     0.313994     0.474722  Biso 1.000000     O
    O   1.0     0.352991     0.194632     0.256109  Biso 1.000000     O
    O   1.0     0.726418     0.365082     0.398639  Biso 1.000000     O
    O   1.0     0.678425     0.423285     0.672826  Biso 1.000000     O
    O   1.0     0.362096     0.396683     0.729561  Biso 1.000000     O
    O   1.0     0.943201     0.724605     0.928733  Biso 1.000000     O
    O   1.0     0.169347     0.009292     0.236981  Biso 1.000000     O
    O   1.0     0.081577     0.283984     0.062652  Biso 1.000000     O
    O   1.0     0.400780     0.506011     0.763308  Biso 1.000000     O
    O   1.0     0.922954     0.946463     0.727396  Biso 1.000000     O
    O   1.0     0.532641     0.694467     0.607511  Biso 1.000000     O
    O   1.0     0.189371     0.190266     0.190750  Biso 1.000000     O
    O   1.0     0.008410     0.236548     0.170343  Biso 1.000000     O
    O   1.0     0.815244     0.818265     0.820890  Biso 1.000000     O
    O   1.0     0.421034     0.670826     0.682733  Biso 1.000000     O
    O   1.0     0.312639     0.473363     0.404251  Biso 1.000000     O
    O   1.0     0.323937     0.071503     0.256569  Biso 1.000000     O
    O   1.0     0.750460     0.814063     0.656975  Biso 1.000000     O
    O   1.0     0.692089     0.605736     0.536978  Biso 1.000000     O
    O   1.0     0.326355     0.337036     0.586557  Biso 1.000000     O
    O   1.0     0.395011     0.728033     0.365885  Biso 1.000000     O
    O   1.0     0.603074     0.534914     0.696124  Biso 1.000000     O
    O   1.0     0.609733     0.644045     0.282371  Biso 1.000000     O
    O   1.0     0.283497     0.062529     0.082903  Biso 1.000000     O
    O   1.0     0.236170     0.170347     0.009812  Biso 1.000000     O
    O   1.0     0.422973     0.503690     0.587117  Biso 1.000000     O
    O   1.0     0.504166     0.761484     0.405168  Biso 1.000000     O
    O   1.0     0.934247     0.683945     0.755116  Biso 1.000000     O
    O   1.0     0.758824     0.405255     0.507844  Biso 1.000000     O
    O   1.0     0.721184     0.925685     0.948889  Biso 1.000000     O
    O   1.0     0.651590     0.753076     0.816304  Biso 1.000000     O
    O   1.0     0.246117     0.501999     0.604588  Biso 1.000000     O
    O   1.0     0.642442     0.280545     0.612931  Biso 1.000000     O
   Zn   1.0     0.765041     0.820412     0.926823  Biso 1.000000    Zn
   Zn   1.0     0.083389     0.187866     0.240700  Biso 1.000000    Zn
   Zn   1.0     0.247495     0.248505     0.249219  Biso 1.000000    Zn
   Zn   1.0     0.433714     0.618344     0.348461  Biso 1.000000    Zn
   Zn   1.0     0.239597     0.084360     0.188173  Biso 1.000000    Zn
   Zn   1.0     0.921234     0.768358     0.823446  Biso 1.000000    Zn
   Zn   1.0     0.659564     0.390378     0.574581  Biso 1.000000    Zn
   Zn   1.0     0.387927     0.572795     0.663582  Biso 1.000000    Zn
   Zn   1.0     0.407692     0.409046     0.410433  Biso 1.000000    Zn
   Zn   1.0     0.345358     0.435162     0.619644  Biso 1.000000    Zn
   Zn   1.0     0.616791     0.346859     0.436856  Biso 1.000000    Zn
   Zn   1.0     0.502351     0.504284     0.505872  Biso 1.000000    Zn
   Zn   1.0     0.186724     0.240401     0.084848  Biso 1.000000    Zn
   Zn   1.0     0.817703     0.924285     0.770971  Biso 1.000000    Zn
   Zn   1.0     0.571029     0.661948     0.391958  Biso 1.000000    Zn
   Zn   1.0     0.757127     0.760013     0.762430  Biso 1.000000    Zn
   Zn   1.0     0.596961     0.599405     0.601178  Biso 1.000000    Zn
