#======================================================================

# CRYSTAL DATA

#----------------------------------------------------------------------

data_VESTA_phase_1


_pd_phase_name                         MOF
_cell_length_a                         13.50800
_cell_length_b                         13.93200
_cell_length_c                         13.87000
_cell_angle_alpha                      90.00000
_cell_angle_beta                       90.00500
_cell_angle_gamma                      89.98900
_symmetry_space_group_name_H-M         "P 1"
_symmetry_Int_Tables_number            1

loop_
_symmetry_equiv_pos_as_xyz
   "x, y, z"

loop_
   _atom_site_label
   _atom_site_occupancy
   _atom_site_fract_x
   _atom_site_fract_y
   _atom_site_fract_z
   _atom_site_adp_type
   _atom_site_B_iso_or_equiv
   _atom_site_type_symbol
    H   1.0     0.343169     0.000231     0.350309  Biso 1.000000     H
    H   1.0     0.343211     0.000432     0.850326  Biso 1.000000     H
    H   1.0     0.343209     0.499680     0.350259  Biso 1.000000     H
    H   1.0     0.343168     0.499734     0.850327  Biso 1.000000     H
    H   1.0     0.843142    -0.000340     0.350346  Biso 1.000000     H
    H   1.0     0.843197    -0.000535     0.850266  Biso 1.000000     H
    H   1.0     0.843181     0.500506     0.350358  Biso 1.000000     H
    H   1.0     0.843155     0.500403     0.850284  Biso 1.000000     H
    H   1.0     0.343239     0.000250     0.149715  Biso 1.000000     H
    H   1.0     0.343184     0.000369     0.649666  Biso 1.000000     H
    H   1.0     0.343198     0.499674     0.149728  Biso 1.000000     H
    H   1.0     0.343223     0.499619     0.649615  Biso 1.000000     H
    H   1.0     0.843219    -0.000446     0.149656  Biso 1.000000     H
    H   1.0     0.843176    -0.000555     0.649705  Biso 1.000000     H
    H   1.0     0.843175     0.500387     0.149684  Biso 1.000000     H
    H   1.0     0.843216     0.500425     0.649717  Biso 1.000000     H
    H   1.0     0.156820     0.000341     0.350308  Biso 1.000000     H
    H   1.0     0.156874     0.000553     0.850319  Biso 1.000000     H
    H   1.0     0.156858     0.499501     0.350258  Biso 1.000000     H
    H   1.0     0.156832     0.499589     0.850332  Biso 1.000000     H
    H   1.0     0.656811    -0.000170     0.350348  Biso 1.000000     H
    H   1.0     0.656852    -0.000349     0.850263  Biso 1.000000     H
    H   1.0     0.656852     0.500403     0.350360  Biso 1.000000     H
    H   1.0     0.656811     0.500318     0.850290  Biso 1.000000     H
    H   1.0     0.156889     0.000392     0.149715  Biso 1.000000     H
    H   1.0     0.156847     0.000454     0.649666  Biso 1.000000     H
    H   1.0     0.156848     0.499510     0.149717  Biso 1.000000     H
    H   1.0     0.156889     0.499464     0.649616  Biso 1.000000     H
    H   1.0     0.656888    -0.000239     0.149661  Biso 1.000000     H
    H   1.0     0.656832    -0.000407     0.649708  Biso 1.000000     H
    H   1.0     0.656844     0.500283     0.149676  Biso 1.000000     H
    H   1.0     0.656870     0.500340     0.649720  Biso 1.000000     H
    C   1.0    -0.001059     0.343372     0.343996  Biso 1.000000     C
    C   1.0    -0.001021     0.343392     0.843976  Biso 1.000000     C
    C   1.0     0.001036     0.843383     0.343994  Biso 1.000000     C
    C   1.0     0.001118     0.843368     0.843976  Biso 1.000000     C
    C   1.0     0.500951     0.343452     0.343997  Biso 1.000000     C
    C   1.0     0.500844     0.343465     0.843974  Biso 1.000000     C
    C   1.0     0.500217     0.843458     0.343998  Biso 1.000000     C
    C   1.0     0.499164     0.843441     0.843986  Biso 1.000000     C
    C   1.0    -0.001048     0.156524     0.156031  Biso 1.000000     C
    C   1.0    -0.001042     0.156537     0.656016  Biso 1.000000     C
    C   1.0     0.001020     0.656533     0.156031  Biso 1.000000     C
    C   1.0     0.001097     0.656514     0.656015  Biso 1.000000     C
    C   1.0     0.500907     0.156597     0.156038  Biso 1.000000     C
    C   1.0     0.500843     0.156611     0.656016  Biso 1.000000     C
    C   1.0     0.500189     0.656604     0.156037  Biso 1.000000     C
    C   1.0     0.499108     0.656588     0.656026  Biso 1.000000     C
    C   1.0    -0.001066     0.156519     0.343998  Biso 1.000000     C
    C   1.0    -0.001042     0.156542     0.843969  Biso 1.000000     C
    C   1.0     0.001032     0.656534     0.343990  Biso 1.000000     C
    C   1.0     0.001046     0.656514     0.843983  Biso 1.000000     C
    C   1.0     0.500874     0.156596     0.344006  Biso 1.000000     C
    C   1.0     0.500846     0.156612     0.843970  Biso 1.000000     C
    C   1.0     0.500185     0.656612     0.343994  Biso 1.000000     C
    C   1.0     0.499111     0.656588     0.843991  Biso 1.000000     C
    C   1.0    -0.001044     0.343372     0.156036  Biso 1.000000     C
    C   1.0    -0.001001     0.343392     0.656007  Biso 1.000000     C
    C   1.0     0.001083     0.843387     0.156028  Biso 1.000000     C
    C   1.0     0.001098     0.843364     0.656021  Biso 1.000000     C
    C   1.0     0.500917     0.343446     0.156043  Biso 1.000000     C
    C   1.0     0.500883     0.343464     0.656007  Biso 1.000000     C
    C   1.0     0.500252     0.843464     0.156034  Biso 1.000000     C
    C   1.0     0.499150     0.843440     0.656029  Biso 1.000000     C
    C   1.0     0.301255     0.000312     0.417154  Biso 1.000000     C
    C   1.0     0.301305     0.000418     0.917174  Biso 1.000000     C
    C   1.0     0.301294     0.499633     0.417104  Biso 1.000000     C
    C   1.0     0.301259     0.499669     0.917174  Biso 1.000000     C
    C   1.0     0.801236    -0.000364     0.417194  Biso 1.000000     C
    C   1.0     0.801289    -0.000458     0.917113  Biso 1.000000     C
    C   1.0     0.801275     0.500449     0.417205  Biso 1.000000     C
    C   1.0     0.801242     0.500397     0.917128  Biso 1.000000     C
    C   1.0     0.301315     0.000321     0.082868  Biso 1.000000     C
    C   1.0     0.301268     0.000386     0.582816  Biso 1.000000     C
    C   1.0     0.301271     0.499639     0.082883  Biso 1.000000     C
    C   1.0     0.301306     0.499600     0.582768  Biso 1.000000     C
    C   1.0     0.801300    -0.000405     0.082809  Biso 1.000000     C
    C   1.0     0.801256    -0.000484     0.582859  Biso 1.000000     C
    C   1.0     0.801254     0.500386     0.082838  Biso 1.000000     C
    C   1.0     0.801294     0.500410     0.582872  Biso 1.000000     C
    C   1.0     0.198744     0.000342     0.417152  Biso 1.000000     C
    C   1.0     0.198797     0.000500     0.917165  Biso 1.000000     C
    C   1.0     0.198783     0.499528     0.417103  Biso 1.000000     C
    C   1.0     0.198750     0.499599     0.917180  Biso 1.000000     C
    C   1.0     0.698731    -0.000269     0.417194  Biso 1.000000     C
    C   1.0     0.698781    -0.000405     0.917106  Biso 1.000000     C
    C   1.0     0.698770     0.500430     0.417205  Biso 1.000000     C
    C   1.0     0.698734     0.500332     0.917135  Biso 1.000000     C
    C   1.0     0.198805     0.000411     0.082872  Biso 1.000000     C
    C   1.0     0.198761     0.000405     0.582822  Biso 1.000000     C
    C   1.0     0.198761     0.499561     0.082874  Biso 1.000000     C
    C   1.0     0.198800     0.499503     0.582771  Biso 1.000000     C
    C   1.0     0.698795    -0.000344     0.082815  Biso 1.000000     C
    C   1.0     0.698748    -0.000396     0.582866  Biso 1.000000     C
    C   1.0     0.698749     0.500312     0.082829  Biso 1.000000     C
    C   1.0     0.698785     0.500397     0.582877  Biso 1.000000     C
    N   1.0    -0.000450     0.403514     0.403287  Biso 1.000000     N
    N   1.0    -0.000415     0.403514     0.903288  Biso 1.000000     N
    N   1.0     0.000452     0.903504     0.403306  Biso 1.000000     N
    N   1.0     0.000554     0.903505     0.903273  Biso 1.000000     N
    N   1.0     0.500434     0.403588     0.403295  Biso 1.000000     N
    N   1.0     0.500335     0.403579     0.903294  Biso 1.000000     N
    N   1.0     0.499962     0.903571     0.403320  Biso 1.000000     N
    N   1.0     0.499691     0.903573     0.903287  Biso 1.000000     N
    N   1.0    -0.000447     0.096412     0.096710  Biso 1.000000     N
    N   1.0    -0.000446     0.096411     0.596709  Biso 1.000000     N
    N   1.0     0.000440     0.596401     0.096729  Biso 1.000000     N
    N   1.0     0.000529     0.596399     0.596696  Biso 1.000000     N
    N   1.0     0.500395     0.096484     0.096715  Biso 1.000000     N
    N   1.0     0.500311     0.096478     0.596715  Biso 1.000000     N
    N   1.0     0.499943     0.596468     0.096736  Biso 1.000000     N
    N   1.0     0.499636     0.596469     0.596710  Biso 1.000000     N
    N   1.0    -0.000477     0.096400     0.403313  Biso 1.000000     N
    N   1.0    -0.000442     0.096416     0.903277  Biso 1.000000     N
    N   1.0     0.000464     0.596403     0.403292  Biso 1.000000     N
    N   1.0     0.000448     0.596394     0.903296  Biso 1.000000     N
    N   1.0     0.500325     0.096468     0.403311  Biso 1.000000     N
    N   1.0     0.500342     0.096480     0.903274  Biso 1.000000     N
    N   1.0     0.499946     0.596480     0.403298  Biso 1.000000     N
    N   1.0     0.499640     0.596462     0.903300  Biso 1.000000     N
    N   1.0    -0.000426     0.403504     0.096733  Biso 1.000000     N
    N   1.0    -0.000387     0.403513     0.596694  Biso 1.000000     N
    N   1.0     0.000534     0.903511     0.096716  Biso 1.000000     N
    N   1.0     0.000504     0.903496     0.596719  Biso 1.000000     N
    N   1.0     0.500388     0.403566     0.096728  Biso 1.000000     N
    N   1.0     0.500376     0.403579     0.596688  Biso 1.000000     N
    N   1.0     0.500011     0.903581     0.096715  Biso 1.000000     N
    N   1.0     0.499676     0.903565     0.596720  Biso 1.000000     N
    N   1.0     0.354210     0.000320     0.000040  Biso 1.000000     N
    N   1.0     0.354162     0.000264     0.499985  Biso 1.000000     N
    N   1.0     0.354151     0.499742     0.000047  Biso 1.000000     N
    N   1.0     0.354199     0.499690     0.499936  Biso 1.000000     N
    N   1.0     0.854190    -0.000470    -0.000021  Biso 1.000000     N
    N   1.0     0.854141    -0.000420     0.500025  Biso 1.000000     N
    N   1.0     0.854132     0.500354     0.000001  Biso 1.000000     N
    N   1.0     0.854177     0.500438     0.500036  Biso 1.000000     N
    N   1.0     0.145909     0.000409     0.000034  Biso 1.000000     N
    N   1.0     0.145860     0.000380     0.499989  Biso 1.000000     N
    N   1.0     0.145896     0.499526     0.499939  Biso 1.000000     N
    N   1.0     0.145852     0.499566     0.000044  Biso 1.000000     N
    N   1.0     0.645901    -0.000228    -0.000022  Biso 1.000000     N
    N   1.0     0.645852    -0.000261     0.500033  Biso 1.000000     N
    N   1.0     0.645841     0.500289    -0.000000  Biso 1.000000     N
    N   1.0     0.645889     0.500312     0.500042  Biso 1.000000     N
   Fe   1.0     0.000063    -0.000028     0.000008  Biso 1.000000    Fe
   Fe   1.0     0.000013    -0.000040     0.500011  Biso 1.000000    Fe
   Fe   1.0     0.000000     0.499957     0.000028  Biso 1.000000    Fe
   Fe   1.0     0.000049     0.499960     0.499991  Biso 1.000000    Fe
   Fe   1.0     0.500065     0.000033     0.000013  Biso 1.000000    Fe
   Fe   1.0     0.500017     0.000025     0.500016  Biso 1.000000    Fe
   Fe   1.0     0.500002     0.500016     0.000031  Biso 1.000000    Fe
   Fe   1.0     0.500053     0.500029     0.499995  Biso 1.000000    Fe
   Ni   1.0    -0.001466     0.249937     0.250020  Biso 1.000000    Ni
   Ni   1.0    -0.001448     0.249966     0.749993  Biso 1.000000    Ni
   Ni   1.0     0.001443     0.749955     0.250012  Biso 1.000000    Ni
   Ni   1.0     0.001488     0.749928     0.750004  Biso 1.000000    Ni
   Ni   1.0     0.501298     0.250025     0.250026  Biso 1.000000    Ni
   Ni   1.0     0.501249     0.250048     0.749995  Biso 1.000000    Ni
   Ni   1.0     0.500409     0.750044     0.250016  Biso 1.000000    Ni
   Ni   1.0     0.498733     0.750016     0.750015  Biso 1.000000    Ni
