#======================================================================

# CRYSTAL DATA

#----------------------------------------------------------------------

data_VESTA_phase_1


_pd_phase_name                         MOF
_cell_length_a                         17.46800
_cell_length_b                         17.46800
_cell_length_c                         17.46800
_cell_angle_alpha                      97.47000
_cell_angle_beta                       115.78500
_cell_angle_gamma                      115.78500
_symmetry_space_group_name_H-M         "P 1"
_symmetry_Int_Tables_number            1

loop_
_symmetry_equiv_pos_as_xyz
   "x, y, z"

loop_
   _atom_site_label
   _atom_site_occupancy
   _atom_site_fract_x
   _atom_site_fract_y
   _atom_site_fract_z
   _atom_site_adp_type
   _atom_site_B_iso_or_equiv
   _atom_site_type_symbol
    H   1.0     0.652655     0.039078     0.334421  Biso 1.000000     H
    H   1.0     0.457991     0.892143     0.048465  Biso 1.000000     H
    H   1.0     0.776895     0.970435     0.376576  Biso 1.000000     H
    H   1.0     0.705708     0.824955     0.198424  Biso 1.000000     H
    H   1.0     0.589118     0.283699     0.285605  Biso 1.000000     H
    H   1.0     0.628667     0.152811     0.098325  Biso 1.000000     H
    H   1.0     0.713649     0.465833     0.315966  Biso 1.000000     H
    H   1.0     0.830172     0.491640     0.219926  Biso 1.000000     H
    H   1.0     0.570136     0.830131     0.109585  Biso 1.000000     H
    H   1.0     0.721548     0.324497     0.126911  Biso 1.000000     H
    H   1.0     0.156945     0.822276     0.611355  Biso 1.000000     H
    H   1.0     0.969290     0.908293     0.571549  Biso 1.000000     H
    H   1.0     0.274123     0.895358     0.808557  Biso 1.000000     H
    H   1.0     0.208297     0.000000     0.885351  Biso 1.000000     H
    H   1.0     0.088407     0.806170     0.301179  Biso 1.000000     H
    H   1.0     0.124202     0.020728     0.475152  Biso 1.000000     H
    H   1.0     0.210842     0.898627     0.241078  Biso 1.000000     H
    H   1.0     0.320624     0.096998     0.332901  Biso 1.000000     H
    H   1.0     0.071300     0.960333     0.745459  Biso 1.000000     H
    H   1.0     0.215193     0.083514     0.394525  Biso 1.000000     H
    H   1.0     0.875556     0.192573     0.402676  Biso 1.000000     H
    H   1.0     0.063210     0.106555     0.442481  Biso 1.000000     H
    H   1.0     0.758378     0.119491     0.205474  Biso 1.000000     H
    H   1.0     0.824204     0.008119     0.128680  Biso 1.000000     H
    H   1.0     0.944094     0.208678     0.712851  Biso 1.000000     H
    H   1.0     0.908299     0.994120     0.538878  Biso 1.000000     H
    H   1.0     0.821659     0.116222     0.772952  Biso 1.000000     H
    H   1.0     0.711878     0.917850     0.681130  Biso 1.000000     H
    H   1.0     0.961201     0.054515     0.268572  Biso 1.000000     H
    H   1.0     0.817308     0.931334     0.619506  Biso 1.000000     H
    H   1.0     0.379846     0.975770     0.679610  Biso 1.000000     H
    H   1.0     0.574510     0.122705     0.965565  Biso 1.000000     H
    H   1.0     0.255607     0.044414     0.637455  Biso 1.000000     H
    H   1.0     0.326792     0.189891     0.815608  Biso 1.000000     H
    H   1.0     0.443384     0.731149     0.728426  Biso 1.000000     H
    H   1.0     0.403835     0.862037     0.915706  Biso 1.000000     H
    H   1.0     0.318853     0.549016     0.698065  Biso 1.000000     H
    H   1.0     0.202329     0.523208     0.794105  Biso 1.000000     H
    H   1.0     0.462365     0.184718     0.904446  Biso 1.000000     H
    H   1.0     0.310954     0.690352     0.887120  Biso 1.000000     H
    H   1.0     0.301094     0.335294     0.192400  Biso 1.000000     H
    H   1.0     0.170990     0.048262     0.105270  Biso 1.000000     H
    H   1.0     0.425536     0.377408     0.119546  Biso 1.000000     H
    H   1.0     0.388734     0.198730     0.008414  Biso 1.000000     H
    H   1.0     0.006835     0.286439     0.207042  Biso 1.000000     H
    H   1.0     0.968853     0.098350     0.992466  Biso 1.000000     H
    H   1.0     0.866938     0.316428     0.114985  Biso 1.000000     H
    H   1.0     0.751903     0.220318     0.916280  Biso 1.000000     H
    H   1.0     0.294161     0.109489     0.054203  Biso 1.000000     H
    H   1.0     0.825957     0.127289     0.930197  Biso 1.000000     H
    H   1.0     0.817041     0.612401     0.974004  Biso 1.000000     H
    H   1.0     0.682855     0.571730     0.121553  Biso 1.000000     H
    H   1.0     0.934922     0.809067     0.042987  Biso 1.000000     H
    H   1.0     0.904508     0.885567     0.189373  Biso 1.000000     H
    H   1.0     0.518925     0.302889     0.730218  Biso 1.000000     H
    H   1.0     0.465161     0.476528     0.860508  Biso 1.000000     H
    H   1.0     0.364185     0.241873     0.548242  Biso 1.000000     H
    H   1.0     0.243371     0.333675     0.522046  Biso 1.000000     H
    H   1.0     0.808301     0.745482     0.183739  Biso 1.000000     H
    H   1.0     0.320026     0.395252     0.689303  Biso 1.000000     H
    H   1.0     0.215462     0.402448     0.040028  Biso 1.000000     H
    H   1.0     0.349646     0.443119     0.892478  Biso 1.000000     H
    H   1.0     0.097580     0.205782     0.971045  Biso 1.000000     H
    H   1.0     0.127992     0.129281     0.824657  Biso 1.000000     H
    H   1.0     0.513577     0.711960     0.283814  Biso 1.000000     H
    H   1.0     0.567341     0.538321     0.153524  Biso 1.000000     H
    H   1.0     0.668317     0.772975     0.465790  Biso 1.000000     H
    H   1.0     0.789131     0.681174     0.491985  Biso 1.000000     H
    H   1.0     0.224200     0.269367     0.830291  Biso 1.000000     H
    H   1.0     0.712475     0.619596     0.324728  Biso 1.000000     H
    H   1.0     0.731408     0.679554     0.821632  Biso 1.000000     H
    H   1.0     0.861512     0.966586     0.908762  Biso 1.000000     H
    H   1.0     0.606965     0.637440     0.894484  Biso 1.000000     H
    H   1.0     0.643769     0.816118     0.000000  Biso 1.000000     H
    H   1.0     0.000000     0.728409     0.806989  Biso 1.000000     H
    H   1.0     0.063648     0.916498     0.021565  Biso 1.000000     H
    H   1.0     0.165564     0.698420     0.899047  Biso 1.000000     H
    H   1.0     0.280599     0.794530     0.097751  Biso 1.000000     H
    H   1.0     0.738341     0.905359     0.959829  Biso 1.000000     H
    H   1.0     0.206545     0.887559     0.083834  Biso 1.000000     H
    C   1.0     0.650393     0.939070     0.245513  Biso 1.000000     C
    C   1.0     0.626395     0.000000     0.267489  Biso 1.000000     C
    C   1.0     0.519788     0.919049     0.119522  Biso 1.000000     C
    C   1.0     0.729785     0.927352     0.302731  Biso 1.000000     C
    C   1.0     0.750617     0.868794     0.271724  Biso 1.000000     C
    C   1.0     0.833512     0.859235     0.332672  Biso 1.000000     C
    C   1.0     0.680629     0.344342     0.226464  Biso 1.000000     C
    C   1.0     0.616015     0.276120     0.241408  Biso 1.000000     C
    C   1.0     0.633298     0.205918     0.143736  Biso 1.000000     C
    C   1.0     0.732896     0.442849     0.269749  Biso 1.000000     C
    C   1.0     0.805103     0.508641     0.263055  Biso 1.000000     C
    C   1.0     0.858541     0.608083     0.317632  Biso 1.000000     C
    C   1.0     0.148390     0.901649     0.714878  Biso 1.000000     C
    C   1.0     0.122139     0.854241     0.628182  Biso 1.000000     C
    C   1.0     0.017811     0.898110     0.605587  Biso 1.000000     C
    C   1.0     0.228485     0.923575     0.805477  Biso 1.000000     C
    C   1.0     0.251614     0.976774     0.885455  Biso 1.000000     C
    C   1.0     0.335085     0.998244     0.977324  Biso 1.000000     C
    C   1.0     0.181427     0.956661     0.332175  Biso 1.000000     C
    C   1.0     0.116704     0.877582     0.336279  Biso 1.000000     C
    C   1.0     0.137347     0.993651     0.425707  Biso 1.000000     C
    C   1.0     0.231825     0.964539     0.284248  Biso 1.000000     C
    C   1.0     0.293927     0.028461     0.289989  Biso 1.000000     C
    C   1.0     0.345288     0.026166     0.242099  Biso 1.000000     C
    C   1.0     0.884111     0.113200     0.299153  Biso 1.000000     C
    C   1.0     0.910362     0.160608     0.385849  Biso 1.000000     C
    C   1.0     0.000000     0.116739     0.408443  Biso 1.000000     C
    C   1.0     0.804016     0.091273     0.208553  Biso 1.000000     C
    C   1.0     0.780887     0.038073     0.128576  Biso 1.000000     C
    C   1.0     0.697417     0.016604     0.036706  Biso 1.000000     C
    C   1.0     0.851074     0.058187     0.681855  Biso 1.000000     C
    C   1.0     0.915797     0.137266     0.677751  Biso 1.000000     C
    C   1.0     0.895154     0.021197     0.588323  Biso 1.000000     C
    C   1.0     0.800677     0.050310     0.729783  Biso 1.000000     C
    C   1.0     0.738575     0.986387     0.724042  Biso 1.000000     C
    C   1.0     0.687214     0.988682     0.771932  Biso 1.000000     C
    C   1.0     0.382108     0.075779     0.768518  Biso 1.000000     C
    C   1.0     0.406106     0.013640     0.746541  Biso 1.000000     C
    C   1.0     0.512714     0.095799     0.894509  Biso 1.000000     C
    C   1.0     0.302715     0.087495     0.711301  Biso 1.000000     C
    C   1.0     0.281885     0.146055     0.742307  Biso 1.000000     C
    C   1.0     0.198987     0.155611     0.681360  Biso 1.000000     C
    C   1.0     0.351873     0.670507     0.787567  Biso 1.000000     C
    C   1.0     0.416487     0.738729     0.772623  Biso 1.000000     C
    C   1.0     0.399204     0.808931     0.870295  Biso 1.000000     C
    C   1.0     0.299606     0.571999     0.744282  Biso 1.000000     C
    C   1.0     0.227400     0.506208     0.750976  Biso 1.000000     C
    C   1.0     0.173960     0.406766     0.696398  Biso 1.000000     C
    C   1.0     0.324042     0.245986     0.113104  Biso 1.000000     C
    C   1.0     0.284993     0.268101     0.160275  Biso 1.000000     C
    C   1.0     0.216338     0.119576     0.115826  Biso 1.000000     C
    C   1.0     0.393386     0.303361     0.091361  Biso 1.000000     C
    C   1.0     0.419645     0.272236     0.038229  Biso 1.000000     C
    C   1.0     0.490499     0.333212     0.016602  Biso 1.000000     C
    C   1.0     0.897770     0.226731     0.056964  Biso 1.000000     C
    C   1.0     0.981793     0.241886     0.135792  Biso 1.000000     C
    C   1.0     0.952333     0.143595     0.019917  Biso 1.000000     C
    C   1.0     0.842745     0.270060     0.049118  Biso 1.000000     C
    C   1.0     0.778944     0.263544     0.984828  Biso 1.000000     C
    C   1.0     0.734406     0.318216     0.987099  Biso 1.000000     C
    C   1.0     0.834604     0.715221     0.074666  Biso 1.000000     C
    C   1.0     0.793142     0.628659     0.012369  Biso 1.000000     C
    C   1.0     0.727342     0.605856     0.094635  Biso 1.000000     C
    C   1.0     0.904593     0.805904     0.086375  Biso 1.000000     C
    C   1.0     0.933491     0.885849     0.145218  Biso 1.000000     C
    C   1.0     0.000000     0.977911     0.154751  Biso 1.000000     C
    C   1.0     0.398742     0.333280     0.669513  Biso 1.000000     C
    C   1.0     0.482666     0.337807     0.737677  Biso 1.000000     C
    C   1.0     0.456650     0.427056     0.807591  Biso 1.000000     C
    C   1.0     0.341863     0.285114     0.571099  Biso 1.000000     C
    C   1.0     0.268632     0.290677     0.505182  Biso 1.000000     C
    C   1.0     0.221831     0.242533     0.405683  Biso 1.000000     C
    C   1.0     0.197898     0.299627     0.939365  Biso 1.000000     C
    C   1.0     0.239361     0.386190     0.000000  Biso 1.000000     C
    C   1.0     0.305159     0.408993     0.919396  Biso 1.000000     C
    C   1.0     0.127908     0.208945     0.927655  Biso 1.000000     C
    C   1.0     0.099011     0.128999     0.868814  Biso 1.000000     C
    C   1.0     0.027615     0.036938     0.859279  Biso 1.000000     C
    C   1.0     0.633760     0.681568     0.344519  Biso 1.000000     C
    C   1.0     0.549836     0.677042     0.276355  Biso 1.000000     C
    C   1.0     0.575851     0.587793     0.206441  Biso 1.000000     C
    C   1.0     0.690640     0.729734     0.442932  Biso 1.000000     C
    C   1.0     0.763870     0.724171     0.508849  Biso 1.000000     C
    C   1.0     0.810671     0.772316     0.608349  Biso 1.000000     C
    C   1.0     0.708460     0.768862     0.900928  Biso 1.000000     C
    C   1.0     0.747508     0.746747     0.853757  Biso 1.000000     C
    C   1.0     0.816165     0.895272     0.898207  Biso 1.000000     C
    C   1.0     0.639116     0.711487     0.922671  Biso 1.000000     C
    C   1.0     0.612857     0.742612     0.975802  Biso 1.000000     C
    C   1.0     0.542003     0.681637     0.997429  Biso 1.000000     C
    C   1.0     0.134731     0.788117     0.957067  Biso 1.000000     C
    C   1.0     0.050709     0.772962     0.878240  Biso 1.000000     C
    C   1.0     0.080168     0.871252     0.994115  Biso 1.000000     C
    C   1.0     0.189757     0.744788     0.964914  Biso 1.000000     C
    C   1.0     0.253558     0.751305     0.029204  Biso 1.000000     C
    C   1.0     0.298096     0.696633     0.026932  Biso 1.000000     C
    N   1.0     0.581162     0.888304     0.150753  Biso 1.000000     N
    N   1.0     0.545350     0.988179     0.188572  Biso 1.000000     N
    N   1.0     0.690130     0.297273     0.163985  Biso 1.000000     N
    N   1.0     0.587661     0.190802     0.190301  Biso 1.000000     N
    N   1.0     0.080579     0.928764     0.697579  Biso 1.000000     N
    N   1.0     0.041130     0.852784     0.560987  Biso 1.000000     N
    N   1.0     0.182962     0.014946     0.390026  Biso 1.000000     N
    N   1.0     0.090371     0.901301     0.394737  Biso 1.000000     N
    N   1.0     0.951922     0.086084     0.316452  Biso 1.000000     N
    N   1.0     0.991371     0.162065     0.453043  Biso 1.000000     N
    N   1.0     0.849539     0.999902     0.624004  Biso 1.000000     N
    N   1.0     0.942130     0.113547     0.619293  Biso 1.000000     N
    N   1.0     0.451340     0.126544     0.863277  Biso 1.000000     N
    N   1.0     0.487152     0.026669     0.825458  Biso 1.000000     N
    N   1.0     0.342372     0.717575     0.850046  Biso 1.000000     N
    N   1.0     0.444840     0.824046     0.823730  Biso 1.000000     N
    N   1.0     0.278261     0.150888     0.085645  Biso 1.000000     N
    N   1.0     0.217996     0.188925     0.161193  Biso 1.000000     N
    N   1.0     0.890764     0.164266     0.998402  Biso 1.000000     N
    N   1.0     0.000000     0.190530     0.112030  Biso 1.000000     N
    N   1.0     0.790597     0.697800     0.125503  Biso 1.000000     N
    N   1.0     0.726482     0.561420     0.025374  Biso 1.000000     N
    N   1.0     0.384294     0.391007     0.716391  Biso 1.000000     N
    N   1.0     0.518238     0.396412     0.822769  Biso 1.000000     N
    N   1.0     0.241904     0.317049     0.888528  Biso 1.000000     N
    N   1.0     0.306020     0.453428     0.988657  Biso 1.000000     N
    N   1.0     0.648208     0.623841     0.297640  Biso 1.000000     N
    N   1.0     0.514264     0.618437     0.191263  Biso 1.000000     N
    N   1.0     0.754241     0.863960     0.928387  Biso 1.000000     N
    N   1.0     0.814506     0.825923     0.852839  Biso 1.000000     N
    N   1.0     0.141738     0.850581     0.015629  Biso 1.000000     N
    N   1.0     0.017209     0.824318     0.902001  Biso 1.000000     N
    O   1.0     0.937227     0.664309     0.319015  Biso 1.000000     O
    O   1.0     0.827723     0.636723     0.362479  Biso 1.000000     O
    O   1.0     0.848822     0.805910     0.289827  Biso 1.000000     O
    O   1.0     0.886095     0.898604     0.419445  Biso 1.000000     O
    O   1.0     0.424376     0.102856     0.264082  Biso 1.000000     O
    O   1.0     0.322500     0.964620     0.181527  Biso 1.000000     O
    O   1.0     0.332924     0.042936     0.032540  Biso 1.000000     O
    O   1.0     0.386039     0.962474     0.989525  Biso 1.000000     O
    O   1.0     0.608126     0.911992     0.749949  Biso 1.000000     O
    O   1.0     0.710001     0.050229     0.832504  Biso 1.000000     O
    O   1.0     0.699578     0.971911     0.981491  Biso 1.000000     O
    O   1.0     0.646462     0.052373     0.024505  Biso 1.000000     O
    O   1.0     0.095275     0.350539     0.695016  Biso 1.000000     O
    O   1.0     0.204779     0.378125     0.651552  Biso 1.000000     O
    O   1.0     0.183679     0.208939     0.724204  Biso 1.000000     O
    O   1.0     0.146406     0.116245     0.594586  Biso 1.000000     O
    O   1.0     0.678926     0.319799     0.910198  Biso 1.000000     O
    O   1.0     0.741690     0.362391     0.049273  Biso 1.000000     O
    O   1.0     0.509135     0.290775     0.971078  Biso 1.000000     O
    O   1.0     0.539456     0.420054     0.052200  Biso 1.000000     O
    O   1.0     0.166558     0.264419     0.349040  Biso 1.000000     O
    O   1.0     0.236748     0.181845     0.377371  Biso 1.000000     O
    O   1.0     0.000000     0.032771     0.208408  Biso 1.000000     O
    O   1.0     0.039138     0.990230     0.114994  Biso 1.000000     O
    O   1.0     0.865944     0.750430     0.664992  Biso 1.000000     O
    O   1.0     0.795753     0.833003     0.636660  Biso 1.000000     O
    O   1.0     0.026106     0.982077     0.805625  Biso 1.000000     O
    O   1.0     0.993363     0.024619     0.899036  Biso 1.000000     O
    O   1.0     0.353575     0.695050     0.103834  Biso 1.000000     O
    O   1.0     0.290812     0.652458     0.964759  Biso 1.000000     O
    O   1.0     0.523367     0.724073     0.042953  Biso 1.000000     O
    O   1.0     0.493045     0.594794     0.961831  Biso 1.000000     O
   Cd   1.0     0.455827     0.049324     0.160786  Biso 1.000000    Cd
   Cd   1.0     0.971863     0.800068     0.405755  Biso 1.000000    Cd
   Cd   1.0     0.060638     0.214780     0.608275  Biso 1.000000    Cd
   Cd   1.0     0.576674     0.965524     0.853244  Biso 1.000000    Cd
   Cd   1.0     0.115298     0.161085     0.213555  Biso 1.000000    Cd
   Cd   1.0     0.631242     0.406863     0.964277  Biso 1.000000    Cd
   Cd   1.0     0.401260     0.607986     0.049754  Biso 1.000000    Cd
   Cd   1.0     0.917203     0.853763     0.800476  Biso 1.000000    Cd
