#======================================================================

# CRYSTAL DATA

#----------------------------------------------------------------------

data_VESTA_phase_1


_pd_phase_name                         MOF
_cell_length_a                         23.20500
_cell_length_b                         15.81600
_cell_length_c                         16.23500
_cell_angle_alpha                      91.18000
_cell_angle_beta                       89.27500
_cell_angle_gamma                      90.07600
_symmetry_space_group_name_H-M         "P 1"
_symmetry_Int_Tables_number            1

loop_
_symmetry_equiv_pos_as_xyz
   "x, y, z"

loop_
   _atom_site_label
   _atom_site_occupancy
   _atom_site_fract_x
   _atom_site_fract_y
   _atom_site_fract_z
   _atom_site_adp_type
   _atom_site_B_iso_or_equiv
   _atom_site_type_symbol
    H   1.0     0.067953    -0.028451     0.020817  Biso 1.000000     H
    H   1.0     0.567986    -0.028493     0.016197  Biso 1.000000     H
    H   1.0     0.069866     0.391746     0.809278  Biso 1.000000     H
    H   1.0     0.569843     0.392469     0.805713  Biso 1.000000     H
    H   1.0     0.417629     0.929788     0.803934  Biso 1.000000     H
    H   1.0     0.917225     0.930753     0.808986  Biso 1.000000     H
    H   1.0     0.506300     0.519305     0.804356  Biso 1.000000     H
    H   1.0     0.000000     0.518844     0.807612  Biso 1.000000     H
    H   1.0     0.416196     0.432342     0.018783  Biso 1.000000     H
    H   1.0     0.916939     0.433508     0.023152  Biso 1.000000     H
    H   1.0     0.504247     0.844462     0.018578  Biso 1.000000     H
    H   1.0     0.000000     0.844360     0.022812  Biso 1.000000     H
    H   1.0     0.269023     0.934976     0.016265  Biso 1.000000     H
    H   1.0     0.768571     0.935639     0.016587  Biso 1.000000     H
    H   1.0     0.268735     0.430862     0.807326  Biso 1.000000     H
    H   1.0     0.770453     0.429779     0.807884  Biso 1.000000     H
    H   1.0     0.208425     0.065339     0.017569  Biso 1.000000     H
    H   1.0     0.707874     0.065676     0.015703  Biso 1.000000     H
    H   1.0     0.208388     0.299982     0.807393  Biso 1.000000     H
    H   1.0     0.709348     0.299679     0.805822  Biso 1.000000     H
    H   1.0     0.178863     0.839559     0.804977  Biso 1.000000     H
    H   1.0     0.680750     0.838460     0.803967  Biso 1.000000     H
    H   1.0     0.180162     0.522530     0.024592  Biso 1.000000     H
    H   1.0     0.680090     0.521162     0.023761  Biso 1.000000     H
    H   1.0     0.199090     0.181548     0.913069  Biso 1.000000     H
    H   1.0     0.699139     0.181599     0.910848  Biso 1.000000     H
    H   1.0     0.116836     0.394935     0.022198  Biso 1.000000     H
    H   1.0     0.616049     0.394367     0.019192  Biso 1.000000     H
    H   1.0     0.115601     0.966922     0.808588  Biso 1.000000     H
    H   1.0     0.617339     0.965487     0.805391  Biso 1.000000     H
    H   1.0    -0.013381     0.182169     0.916176  Biso 1.000000     H
    H   1.0     0.486749     0.181311     0.910198  Biso 1.000000     H
    H   1.0    -0.022256     0.000000     0.809758  Biso 1.000000     H
    H   1.0     0.478479     0.000000     0.804018  Biso 1.000000     H
    H   1.0    -0.022437     0.303086     0.022431  Biso 1.000000     H
    H   1.0     0.476857     0.302102     0.017550  Biso 1.000000     H
    H   1.0     0.393175     0.565044     0.699903  Biso 1.000000     H
    H   1.0     0.895118     0.564473     0.701513  Biso 1.000000     H
    H   1.0     0.348057     0.841984     0.274380  Biso 1.000000     H
    H   1.0     0.846198     0.841586     0.276563  Biso 1.000000     H
    H   1.0     0.352632     0.822641     0.120752  Biso 1.000000     H
    H   1.0     0.850515     0.822012     0.122891  Biso 1.000000     H
    H   1.0     0.354473     0.591942     0.414265  Biso 1.000000     H
    H   1.0     0.855786     0.591840     0.416323  Biso 1.000000     H
    H   1.0     0.328033     0.782628     0.409204  Biso 1.000000     H
    H   1.0     0.827356     0.781938     0.411631  Biso 1.000000     H
    H   1.0     0.327380     0.564639     0.135965  Biso 1.000000     H
    H   1.0     0.827967     0.563538     0.138705  Biso 1.000000     H
    H   1.0     0.290390     0.775965     0.538907  Biso 1.000000     H
    H   1.0     0.791343     0.775256     0.541631  Biso 1.000000     H
    H   1.0     0.322270     0.571589     0.289532  Biso 1.000000     H
    H   1.0     0.823179     0.570698     0.292298  Biso 1.000000     H
    H   1.0     0.293263     0.780967     0.693042  Biso 1.000000     H
    H   1.0     0.794816     0.780078     0.695765  Biso 1.000000     H
    H   1.0     0.476665     0.366740     0.288719  Biso 1.000000     H
    H   1.0     0.977058     0.367306     0.289309  Biso 1.000000     H
    H   1.0     0.406526     0.403686     0.315637  Biso 1.000000     H
    H   1.0     0.907054     0.404083     0.317234  Biso 1.000000     H
    H   1.0     0.465025     0.476217     0.309148  Biso 1.000000     H
    H   1.0     0.965463     0.476715     0.310190  Biso 1.000000     H
    H   1.0     0.466416     0.238995     0.437936  Biso 1.000000     H
    H   1.0     0.967826     0.239157     0.438492  Biso 1.000000     H
    H   1.0     0.451238     0.280308     0.538648  Biso 1.000000     H
    H   1.0     0.953293     0.280328     0.539442  Biso 1.000000     H
    H   1.0     0.396980     0.280834     0.462323  Biso 1.000000     H
    H   1.0     0.898520     0.280883     0.463882  Biso 1.000000     H
    H   1.0     0.074063     0.364221     0.424879  Biso 1.000000     H
    H   1.0     0.572818     0.363743     0.425390  Biso 1.000000     H
    H   1.0     0.062817     0.474423     0.442614  Biso 1.000000     H
    H   1.0     0.561615     0.474006     0.442767  Biso 1.000000     H
    H   1.0     0.057795     0.403562     0.526003  Biso 1.000000     H
    H   1.0     0.556032     0.403343     0.526260  Biso 1.000000     H
    C   1.0     0.034457     0.963361     0.974834  Biso 1.000000     C
    C   1.0     0.534628     0.963076     0.970050  Biso 1.000000     C
    C   1.0     0.035928     0.400225     0.855737  Biso 1.000000     C
    C   1.0     0.535727     0.400441     0.851990  Biso 1.000000     C
    C   1.0     0.450289     0.940226     0.850665  Biso 1.000000     C
    C   1.0     0.949917     0.941033     0.855699  Biso 1.000000     C
    C   1.0     0.500501     0.471646     0.851281  Biso 1.000000     C
    C   1.0     0.000000     0.471467     0.854838  Biso 1.000000     C
    C   1.0     0.449537     0.422375     0.971760  Biso 1.000000     C
    C   1.0     0.950170     0.423076     0.976068  Biso 1.000000     C
    C   1.0     0.457137     0.879371     0.911288  Biso 1.000000     C
    C   1.0     0.957023     0.879747     0.915843  Biso 1.000000     C
    C   1.0     0.457270     0.483694     0.911491  Biso 1.000000     C
    C   1.0     0.957858     0.483865     0.915324  Biso 1.000000     C
    C   1.0     0.499377     0.891815     0.971336  Biso 1.000000     C
    C   1.0     0.999290     0.891996     0.975875  Biso 1.000000     C
    C   1.0     0.418867     0.559922     0.911413  Biso 1.000000     C
    C   1.0     0.919533     0.559925     0.914934  Biso 1.000000     C
    C   1.0     0.418683     0.803219     0.912157  Biso 1.000000     C
    C   1.0     0.918915     0.803177     0.915719  Biso 1.000000     C
    C   1.0     0.266165     0.803414     0.909249  Biso 1.000000     C
    C   1.0     0.767062     0.802943     0.910432  Biso 1.000000     C
    C   1.0     0.266454     0.560962     0.916344  Biso 1.000000     C
    C   1.0     0.767667     0.559365     0.917468  Biso 1.000000     C
    C   1.0     0.235690     0.943270     0.970499  Biso 1.000000     C
    C   1.0     0.735754     0.943423     0.969965  Biso 1.000000     C
    C   1.0     0.235779     0.421659     0.854666  Biso 1.000000     C
    C   1.0     0.736953     0.420691     0.854462  Biso 1.000000     C
    C   1.0     0.228260     0.484476     0.915994  Biso 1.000000     C
    C   1.0     0.729161     0.483197     0.916040  Biso 1.000000     C
    C   1.0     0.227850     0.879563     0.910419  Biso 1.000000     C
    C   1.0     0.728690     0.879193     0.910171  Biso 1.000000     C
    C   1.0     0.201807     0.015711     0.970944  Biso 1.000000     C
    C   1.0     0.701768     0.015776     0.969196  Biso 1.000000     C
    C   1.0     0.201995     0.348924     0.854971  Biso 1.000000     C
    C   1.0     0.702725     0.348406     0.853551  Biso 1.000000     C
    C   1.0     0.184730     0.889203     0.851665  Biso 1.000000     C
    C   1.0     0.686142     0.888418     0.850471  Biso 1.000000     C
    C   1.0     0.185599     0.473696     0.976794  Biso 1.000000     C
    C   1.0     0.685760     0.472566     0.975787  Biso 1.000000     C
    C   1.0     0.158565     0.338241     0.914972  Biso 1.000000     C
    C   1.0     0.658600     0.337843     0.912544  Biso 1.000000     C
    C   1.0     0.158001     0.025342     0.912916  Biso 1.000000     C
    C   1.0     0.658510     0.024983     0.910219  Biso 1.000000     C
    C   1.0     0.152070     0.181702     0.913842  Biso 1.000000     C
    C   1.0     0.652124     0.181462     0.910715  Biso 1.000000     C
    C   1.0     0.150581     0.402135     0.975514  Biso 1.000000     C
    C   1.0     0.650318     0.401459     0.973276  Biso 1.000000     C
    C   1.0     0.149665     0.960591     0.853655  Biso 1.000000     C
    C   1.0     0.650946     0.959714     0.851238  Biso 1.000000     C
    C   1.0     0.123524     0.259715     0.914452  Biso 1.000000     C
    C   1.0     0.623446     0.259423     0.911037  Biso 1.000000     C
    C   1.0     0.123142     0.103852     0.914176  Biso 1.000000     C
    C   1.0     0.623429     0.103412     0.910463  Biso 1.000000     C
    C   1.0     0.062181     0.103973     0.914814  Biso 1.000000     C
    C   1.0     0.562455     0.103457     0.909922  Biso 1.000000     C
    C   1.0     0.062572     0.259798     0.915570  Biso 1.000000     C
    C   1.0     0.562477     0.259452     0.911162  Biso 1.000000     C
    C   1.0     0.033639     0.181988     0.915594  Biso 1.000000     C
    C   1.0     0.533767     0.181416     0.910345  Biso 1.000000     C
    C   1.0     0.026965     0.025643     0.915398  Biso 1.000000     C
    C   1.0     0.527319     0.025042     0.910247  Biso 1.000000     C
    C   1.0     0.027717     0.338270     0.915623  Biso 1.000000     C
    C   1.0     0.527442     0.337931     0.911340  Biso 1.000000     C
    C   1.0    -0.016207     0.000000     0.856364  Biso 1.000000     C
    C   1.0     0.484341     0.000000     0.850977  Biso 1.000000     C
    C   1.0    -0.015934     0.350625     0.975411  Biso 1.000000     C
    C   1.0     0.483528     0.349925     0.970843  Biso 1.000000     C
    C   1.0     0.372067     0.601188     0.574970  Biso 1.000000     C
    C   1.0     0.873571     0.600808     0.576829  Biso 1.000000     C
    C   1.0     0.370996     0.609910     0.661280  Biso 1.000000     C
    C   1.0     0.872770     0.609383     0.663137  Biso 1.000000     C
    C   1.0     0.343477     0.779121     0.246383  Biso 1.000000     C
    C   1.0     0.842164     0.778589     0.248679  Biso 1.000000     C
    C   1.0     0.346079     0.769275     0.161251  Biso 1.000000     C
    C   1.0     0.844614     0.768636     0.163560  Biso 1.000000     C
    C   1.0     0.343036     0.662891     0.527961  Biso 1.000000     C
    C   1.0     0.844199     0.662431     0.530156  Biso 1.000000     C
    C   1.0     0.335805     0.707971     0.295968  Biso 1.000000     C
    C   1.0     0.835390     0.707362     0.298387  Biso 1.000000     C
    C   1.0     0.343346     0.654808     0.438566  Biso 1.000000     C
    C   1.0     0.844162     0.654442     0.440797  Biso 1.000000     C
    C   1.0     0.334415     0.718050     0.385493  Biso 1.000000     C
    C   1.0     0.834304     0.717504     0.387879  Biso 1.000000     C
    C   1.0     0.332403     0.624343     0.169867  Biso 1.000000     C
    C   1.0     0.832433     0.623410     0.172495  Biso 1.000000     C
    C   1.0     0.314588     0.728451     0.571592  Biso 1.000000     C
    C   1.0     0.815765     0.727806     0.574068  Biso 1.000000     C
    C   1.0     0.329874     0.629034     0.255157  Biso 1.000000     C
    C   1.0     0.830097     0.628218     0.257770  Biso 1.000000     C
    C   1.0     0.315568     0.731923     0.656897  Biso 1.000000     C
    C   1.0     0.817075     0.731199     0.659347  Biso 1.000000     C
    C   1.0     0.428532     0.476824     0.499075  Biso 1.000000     C
    C   1.0     0.930036     0.476807     0.500379  Biso 1.000000     C
    C   1.0     0.402427     0.533568     0.535932  Biso 1.000000     C
    C   1.0     0.903942     0.533388     0.537490  Biso 1.000000     C
    C   1.0     0.452657     0.412295     0.328068  Biso 1.000000     C
    C   1.0     0.953262     0.412716     0.329085  Biso 1.000000     C
    C   1.0     0.443365     0.289167     0.472774  Biso 1.000000     C
    C   1.0     0.944973     0.289258     0.473697  Biso 1.000000     C
    C   1.0     0.048400     0.411066     0.460376  Biso 1.000000     C
    C   1.0     0.547020     0.410726     0.460502  Biso 1.000000     C
    N   1.0     0.340641     0.693163     0.123379  Biso 1.000000     N
    N   1.0     0.839851     0.692324     0.125892  Biso 1.000000     N
    N   1.0     0.343543     0.673477     0.700911  Biso 1.000000     N
    N   1.0     0.845333     0.672775     0.703035  Biso 1.000000     N
    O   1.0     0.392474     0.577978     0.979004  Biso 1.000000     O
    O   1.0     0.892783     0.577949     0.982202  Biso 1.000000     O
    O   1.0     0.413923     0.763152     0.979126  Biso 1.000000     O
    O   1.0     0.913122     0.763319     0.982674  Biso 1.000000     O
    O   1.0     0.392654     0.785267     0.845180  Biso 1.000000     O
    O   1.0     0.894300     0.784719     0.847793  Biso 1.000000     O
    O   1.0     0.414644     0.600091     0.844543  Biso 1.000000     O
    O   1.0     0.915693     0.599969     0.847914  Biso 1.000000     O
    O   1.0     0.270472     0.759937     0.842522  Biso 1.000000     O
    O   1.0     0.772501     0.759428     0.843846  Biso 1.000000     O
    O   1.0     0.292738     0.576323     0.848719  Biso 1.000000     O
    O   1.0     0.794812     0.574521     0.850511  Biso 1.000000     O
    O   1.0     0.270807     0.603829     0.983231  Biso 1.000000     O
    O   1.0     0.771363     0.602216     0.984503  Biso 1.000000     O
    O   1.0     0.292624     0.788802     0.975902  Biso 1.000000     O
    O   1.0     0.792322     0.788307     0.978034  Biso 1.000000     O
   Si   1.0     0.468517     0.395767     0.439510  Biso 1.000000    Si
   Si   1.0     0.969814     0.395952     0.440272  Biso 1.000000    Si
   Zn   1.0     0.342714     0.680294     0.828226  Biso 1.000000    Zn
   Zn   1.0     0.844724     0.679007     0.830164  Biso 1.000000    Zn
   Zn   1.0     0.342461     0.684058    -0.003340  Biso 1.000000    Zn
   Zn   1.0     0.842199     0.683068    -0.000556  Biso 1.000000    Zn
