#======================================================================

# CRYSTAL DATA

#----------------------------------------------------------------------

data_VESTA_phase_1


_pd_phase_name                         MOF
_cell_length_a                         14.79900
_cell_length_b                         12.88900
_cell_length_c                         20.85000
_cell_angle_alpha                      90.00000
_cell_angle_beta                       89.99900
_cell_angle_gamma                      89.94400
_symmetry_space_group_name_H-M         "P 1"
_symmetry_Int_Tables_number            1

loop_
_symmetry_equiv_pos_as_xyz
   "x, y, z"

loop_
   _atom_site_label
   _atom_site_occupancy
   _atom_site_fract_x
   _atom_site_fract_y
   _atom_site_fract_z
   _atom_site_adp_type
   _atom_site_B_iso_or_equiv
   _atom_site_type_symbol
    H   1.0     0.190753     0.162649     0.891469  Biso 1.000000     H
    H   1.0     0.690747     0.162661     0.891454  Biso 1.000000     H
    H   1.0     0.260369     0.244011     0.986825  Biso 1.000000     H
    H   1.0     0.760302     0.244076     0.986812  Biso 1.000000     H
    H   1.0     0.140700     0.010888     0.107416  Biso 1.000000     H
    H   1.0     0.640730     0.010864     0.107390  Biso 1.000000     H
    H   1.0     0.074142     0.926902     0.011699  Biso 1.000000     H
    H   1.0     0.574119     0.926925     0.011677  Biso 1.000000     H
    H   1.0     0.051375     0.914162     0.900359  Biso 1.000000     H
    H   1.0     0.551478     0.914091     0.900323  Biso 1.000000     H
    H   1.0     0.061152     0.026131     0.852130  Biso 1.000000     H
    H   1.0     0.561140     0.026093     0.852106  Biso 1.000000     H
    H   1.0     0.191242     0.768408     0.904209  Biso 1.000000     H
    H   1.0     0.691226     0.768487     0.904143  Biso 1.000000     H
    H   1.0     0.287717     0.785237     0.855171  Biso 1.000000     H
    H   1.0     0.787746     0.785312     0.855143  Biso 1.000000     H
    H   1.0     0.058955     0.662405     0.108660  Biso 1.000000     H
    H   1.0     0.559025     0.662421     0.108685  Biso 1.000000     H
    H   1.0     0.489515     0.744147     0.013367  Biso 1.000000     H
    H   1.0     0.989484     0.744165     0.013329  Biso 1.000000     H
    H   1.0     0.109292     0.510992     0.892626  Biso 1.000000     H
    H   1.0     0.609250     0.510968     0.892647  Biso 1.000000     H
    H   1.0     0.175811     0.426748     0.988303  Biso 1.000000     H
    H   1.0     0.675848     0.426762     0.988310  Biso 1.000000     H
    H   1.0     0.198541     0.413763     0.099656  Biso 1.000000     H
    H   1.0     0.698614     0.413784     0.099651  Biso 1.000000     H
    H   1.0     0.188581     0.525618     0.147971  Biso 1.000000     H
    H   1.0     0.688591     0.525592     0.147998  Biso 1.000000     H
    H   1.0     0.058757     0.267996     0.095706  Biso 1.000000     H
    H   1.0     0.558779     0.268007     0.095616  Biso 1.000000     H
    H   1.0     0.462252     0.284944     0.144628  Biso 1.000000     H
    H   1.0     0.962168     0.284994     0.144678  Biso 1.000000     H
    H   1.0     0.309223     0.837339     0.391443  Biso 1.000000     H
    H   1.0     0.809228     0.837290     0.391456  Biso 1.000000     H
    H   1.0     0.239638     0.755949     0.486801  Biso 1.000000     H
    H   1.0     0.739638     0.755893     0.486810  Biso 1.000000     H
    H   1.0     0.359206     0.989177     0.607357  Biso 1.000000     H
    H   1.0     0.859239     0.989073     0.607378  Biso 1.000000     H
    H   1.0     0.425836     0.073092     0.511640  Biso 1.000000     H
    H   1.0     0.925834     0.073037     0.511664  Biso 1.000000     H
    H   1.0     0.448433     0.085931     0.400258  Biso 1.000000     H
    H   1.0     0.948501     0.085856     0.400333  Biso 1.000000     H
    H   1.0     0.438838     0.973861     0.352100  Biso 1.000000     H
    H   1.0     0.938820     0.973865     0.352113  Biso 1.000000     H
    H   1.0     0.308785     0.231388     0.404092  Biso 1.000000     H
    H   1.0     0.808728     0.231487     0.404167  Biso 1.000000     H
    H   1.0     0.212215     0.214641     0.355135  Biso 1.000000     H
    H   1.0     0.712223     0.214686     0.355159  Biso 1.000000     H
    H   1.0     0.440978     0.337531     0.608671  Biso 1.000000     H
    H   1.0     0.940857     0.337484     0.608673  Biso 1.000000     H
    H   1.0     0.010533     0.255877     0.513365  Biso 1.000000     H
    H   1.0     0.510489     0.255846     0.513335  Biso 1.000000     H
    H   1.0     0.390726     0.489035     0.392666  Biso 1.000000     H
    H   1.0     0.890666     0.488977     0.392660  Biso 1.000000     H
    H   1.0     0.324139     0.573222     0.488345  Biso 1.000000     H
    H   1.0     0.824106     0.573203     0.488332  Biso 1.000000     H
    H   1.0     0.301275     0.586111     0.599620  Biso 1.000000     H
    H   1.0     0.801349     0.586176     0.599673  Biso 1.000000     H
    H   1.0     0.311349     0.474327     0.647976  Biso 1.000000     H
    H   1.0     0.811352     0.474348     0.648001  Biso 1.000000     H
    H   1.0     0.441261     0.732013     0.595588  Biso 1.000000     H
    H   1.0     0.941141     0.731907     0.595622  Biso 1.000000     H
    H   1.0     0.037733     0.715028     0.644604  Biso 1.000000     H
    H   1.0     0.537760     0.714971     0.644608  Biso 1.000000     H
    H   1.0     0.309239     0.837323     0.108523  Biso 1.000000     H
    H   1.0     0.809206     0.837318     0.108524  Biso 1.000000     H
    H   1.0     0.239615     0.755947     0.013177  Biso 1.000000     H
    H   1.0     0.739662     0.755888     0.013164  Biso 1.000000     H
    H   1.0     0.359230     0.989092     0.892570  Biso 1.000000     H
    H   1.0     0.859240     0.989091     0.892583  Biso 1.000000     H
    H   1.0     0.425839     0.073052     0.988279  Biso 1.000000     H
    H   1.0     0.925839     0.073046     0.988297  Biso 1.000000     H
    H   1.0     0.448582     0.085835     0.099631  Biso 1.000000     H
    H   1.0     0.948458     0.085893     0.099656  Biso 1.000000     H
    H   1.0     0.438845     0.973854     0.147848  Biso 1.000000     H
    H   1.0     0.938830     0.973873     0.147858  Biso 1.000000     H
    H   1.0     0.308681     0.231571     0.095825  Biso 1.000000     H
    H   1.0     0.808770     0.231441     0.095832  Biso 1.000000     H
    H   1.0     0.212204     0.214648     0.144844  Biso 1.000000     H
    H   1.0     0.712242     0.214680     0.144830  Biso 1.000000     H
    H   1.0     0.440956     0.337529     0.891276  Biso 1.000000     H
    H   1.0     0.940979     0.337557     0.891301  Biso 1.000000     H
    H   1.0     0.010541     0.255852     0.986617  Biso 1.000000     H
    H   1.0     0.510449     0.255795     0.986597  Biso 1.000000     H
    H   1.0     0.390683     0.488960     0.107314  Biso 1.000000     H
    H   1.0     0.890645     0.488926     0.107344  Biso 1.000000     H
    H   1.0     0.324131     0.573193     0.011644  Biso 1.000000     H
    H   1.0     0.824122     0.573195     0.011679  Biso 1.000000     H
    H   1.0     0.301394     0.586182     0.900289  Biso 1.000000     H
    H   1.0     0.801359     0.586153     0.900309  Biso 1.000000     H
    H   1.0     0.311403     0.474359     0.851955  Biso 1.000000     H
    H   1.0     0.811427     0.474334     0.851979  Biso 1.000000     H
    H   1.0     0.441156     0.731906     0.904348  Biso 1.000000     H
    H   1.0     0.941221     0.732001     0.904310  Biso 1.000000     H
    H   1.0     0.037778     0.715061     0.855305  Biso 1.000000     H
    H   1.0     0.537705     0.715041     0.855350  Biso 1.000000     H
    H   1.0     0.190787     0.162668     0.608497  Biso 1.000000     H
    H   1.0     0.690748     0.162641     0.608506  Biso 1.000000     H
    H   1.0     0.260382     0.244014     0.513130  Biso 1.000000     H
    H   1.0     0.760307     0.244056     0.513146  Biso 1.000000     H
    H   1.0     0.140682     0.010879     0.392585  Biso 1.000000     H
    H   1.0     0.640720     0.010852     0.392587  Biso 1.000000     H
    H   1.0     0.074141     0.926902     0.488311  Biso 1.000000     H
    H   1.0     0.574129     0.926896     0.488304  Biso 1.000000     H
    H   1.0     0.051367     0.914172     0.599571  Biso 1.000000     H
    H   1.0     0.551441     0.914102     0.599636  Biso 1.000000     H
    H   1.0     0.061120     0.026098     0.647837  Biso 1.000000     H
    H   1.0     0.561127     0.026105     0.647847  Biso 1.000000     H
    H   1.0     0.191282     0.768401     0.595716  Biso 1.000000     H
    H   1.0     0.691247     0.768441     0.595823  Biso 1.000000     H
    H   1.0     0.287737     0.785262     0.644769  Biso 1.000000     H
    H   1.0     0.787756     0.785317     0.644822  Biso 1.000000     H
    H   1.0     0.058959     0.662429     0.391284  Biso 1.000000     H
    H   1.0     0.559031     0.662443     0.391304  Biso 1.000000     H
    H   1.0     0.489405     0.744036     0.486628  Biso 1.000000     H
    H   1.0     0.989462     0.744132     0.486623  Biso 1.000000     H
    H   1.0     0.109236     0.510918     0.607285  Biso 1.000000     H
    H   1.0     0.609306     0.510955     0.607308  Biso 1.000000     H
    H   1.0     0.175817     0.426739     0.511606  Biso 1.000000     H
    H   1.0     0.675896     0.426774     0.511628  Biso 1.000000     H
    H   1.0     0.198662     0.413814     0.400368  Biso 1.000000     H
    H   1.0     0.698649     0.413842     0.400280  Biso 1.000000     H
    H   1.0     0.188647     0.525568     0.351975  Biso 1.000000     H
    H   1.0     0.688555     0.525669     0.351962  Biso 1.000000     H
    H   1.0     0.058738     0.267933     0.404384  Biso 1.000000     H
    H   1.0     0.558807     0.268044     0.404373  Biso 1.000000     H
    H   1.0     0.462264     0.284907     0.355376  Biso 1.000000     H
    H   1.0     0.962208     0.284963     0.355359  Biso 1.000000     H
    C   1.0     0.178233     0.129741     0.938892  Biso 1.000000     C
    C   1.0     0.678216     0.129770     0.938881  Biso 1.000000     C
    C   1.0     0.217379     0.175844     0.992716  Biso 1.000000     C
    C   1.0     0.717342     0.175885     0.992710  Biso 1.000000     C
    C   1.0     0.206749     0.131960     0.053870  Biso 1.000000     C
    C   1.0     0.706741     0.131968     0.053859  Biso 1.000000     C
    C   1.0     0.150767     0.044977     0.060096  Biso 1.000000     C
    C   1.0     0.650774     0.044967     0.060072  Biso 1.000000     C
    C   1.0     0.113563     0.997761     0.006205  Biso 1.000000     C
    C   1.0     0.613536     0.997788     0.006181  Biso 1.000000     C
    C   1.0     0.128862     0.037343     0.944533  Biso 1.000000     C
    C   1.0     0.628861     0.037357     0.944509  Biso 1.000000     C
    C   1.0     0.097440     0.977207     0.886894  Biso 1.000000     C
    C   1.0     0.597475     0.977207     0.886866  Biso 1.000000     C
    C   1.0     0.242544     0.825059     0.889343  Biso 1.000000     C
    C   1.0     0.742569     0.825116     0.889317  Biso 1.000000     C
    C   1.0     0.071563     0.629579     0.061220  Biso 1.000000     C
    C   1.0     0.571592     0.629584     0.061242  Biso 1.000000     C
    C   1.0     0.032498     0.675904     0.007407  Biso 1.000000     C
    C   1.0     0.532490     0.675879     0.007432  Biso 1.000000     C
    C   1.0     0.043184     0.632120     0.946221  Biso 1.000000     C
    C   1.0     0.543145     0.632077     0.946246  Biso 1.000000     C
    C   1.0     0.099174     0.545022     0.939965  Biso 1.000000     C
    C   1.0     0.599153     0.544994     0.939988  Biso 1.000000     C
    C   1.0     0.136363     0.497669     0.993841  Biso 1.000000     C
    C   1.0     0.636368     0.497656     0.993859  Biso 1.000000     C
    C   1.0     0.120928     0.537065     0.055550  Biso 1.000000     C
    C   1.0     0.620984     0.537089     0.055565  Biso 1.000000     C
    C   1.0     0.152378     0.476792     0.113163  Biso 1.000000     C
    C   1.0     0.652420     0.476782     0.113163  Biso 1.000000     C
    C   1.0     0.007425     0.324734     0.110554  Biso 1.000000     C
    C   1.0     0.507447     0.324723     0.110500  Biso 1.000000     C
    C   1.0     0.321749     0.870234     0.438869  Biso 1.000000     C
    C   1.0     0.821742     0.870189     0.438882  Biso 1.000000     C
    C   1.0     0.282610     0.824131     0.492692  Biso 1.000000     C
    C   1.0     0.782610     0.824074     0.492709  Biso 1.000000     C
    C   1.0     0.293221     0.868048     0.553819  Biso 1.000000     C
    C   1.0     0.793212     0.867991     0.553838  Biso 1.000000     C
    C   1.0     0.349173     0.955058     0.560040  Biso 1.000000     C
    C   1.0     0.849186     0.954983     0.560057  Biso 1.000000     C
    C   1.0     0.386420     0.002229     0.506144  Biso 1.000000     C
    C   1.0     0.886417     0.002175     0.506166  Biso 1.000000     C
    C   1.0     0.371111     0.962642     0.444493  Biso 1.000000     C
    C   1.0     0.871110     0.962593     0.444514  Biso 1.000000     C
    C   1.0     0.402470     0.022770     0.386833  Biso 1.000000     C
    C   1.0     0.902490     0.022755     0.386875  Biso 1.000000     C
    C   1.0     0.257406     0.174797     0.389283  Biso 1.000000     C
    C   1.0     0.757394     0.174858     0.389328  Biso 1.000000     C
    C   1.0     0.428406     0.370390     0.561234  Biso 1.000000     C
    C   1.0     0.928329     0.370362     0.561235  Biso 1.000000     C
    C   1.0     0.467508     0.324112     0.507417  Biso 1.000000     C
    C   1.0     0.967484     0.324106     0.507433  Biso 1.000000     C
    C   1.0     0.456836     0.367909     0.446254  Biso 1.000000     C
    C   1.0     0.956826     0.367903     0.446267  Biso 1.000000     C
    C   1.0     0.400836     0.454995     0.440001  Biso 1.000000     C
    C   1.0     0.900783     0.454954     0.440001  Biso 1.000000     C
    C   1.0     0.363616     0.502322     0.493875  Biso 1.000000     C
    C   1.0     0.863583     0.502306     0.493875  Biso 1.000000     C
    C   1.0     0.379000     0.462875     0.555553  Biso 1.000000     C
    C   1.0     0.878952     0.462869     0.555563  Biso 1.000000     C
    C   1.0     0.347507     0.523157     0.613146  Biso 1.000000     C
    C   1.0     0.847530     0.523160     0.613170  Biso 1.000000     C
    C   1.0     0.492528     0.675229     0.610487  Biso 1.000000     C
    C   1.0     0.992493     0.675214     0.610501  Biso 1.000000     C
    C   1.0     0.321753     0.870225     0.061098  Biso 1.000000     C
    C   1.0     0.821742     0.870202     0.061095  Biso 1.000000     C
    C   1.0     0.282603     0.824115     0.007278  Biso 1.000000     C
    C   1.0     0.782614     0.824087     0.007269  Biso 1.000000     C
    C   1.0     0.293207     0.868006     0.946125  Biso 1.000000     C
    C   1.0     0.793219     0.868003     0.946120  Biso 1.000000     C
    C   1.0     0.349180     0.954996     0.939891  Biso 1.000000     C
    C   1.0     0.849191     0.954998     0.939904  Biso 1.000000     C
    C   1.0     0.386418     0.002194     0.993777  Biso 1.000000     C
    C   1.0     0.886419     0.002187     0.993795  Biso 1.000000     C
    C   1.0     0.371132     0.962616     0.055451  Biso 1.000000     C
    C   1.0     0.871095     0.962616     0.055467  Biso 1.000000     C
    C   1.0     0.402535     0.022769     0.113088  Biso 1.000000     C
    C   1.0     0.902475     0.022764     0.113111  Biso 1.000000     C
    C   1.0     0.257399     0.174879     0.110662  Biso 1.000000     C
    C   1.0     0.757407     0.174841     0.110662  Biso 1.000000     C
    C   1.0     0.428384     0.370366     0.938719  Biso 1.000000     C
    C   1.0     0.928392     0.370387     0.938744  Biso 1.000000     C
    C   1.0     0.467483     0.324071     0.992529  Biso 1.000000     C
    C   1.0     0.967501     0.324090     0.992552  Biso 1.000000     C
    C   1.0     0.456813     0.367865     0.053716  Biso 1.000000     C
    C   1.0     0.956815     0.367859     0.053744  Biso 1.000000     C
    C   1.0     0.400805     0.454949     0.059971  Biso 1.000000     C
    C   1.0     0.900779     0.454919     0.060002  Biso 1.000000     C
    C   1.0     0.363604     0.502293     0.006096  Biso 1.000000     C
    C   1.0     0.863590     0.502291     0.006134  Biso 1.000000     C
    C   1.0     0.379006     0.462873     0.944389  Biso 1.000000     C
    C   1.0     0.879016     0.462892     0.944425  Biso 1.000000     C
    C   1.0     0.347580     0.523173     0.886783  Biso 1.000000     C
    C   1.0     0.847572     0.523165     0.886815  Biso 1.000000     C
    C   1.0     0.492514     0.675222     0.889462  Biso 1.000000     C
    C   1.0     0.992549     0.675277     0.889431  Biso 1.000000     C
    C   1.0     0.178259     0.129758     0.561074  Biso 1.000000     C
    C   1.0     0.678217     0.129750     0.561080  Biso 1.000000     C
    C   1.0     0.217394     0.175844     0.507237  Biso 1.000000     C
    C   1.0     0.717347     0.175863     0.507253  Biso 1.000000     C
    C   1.0     0.206756     0.131946     0.446102  Biso 1.000000     C
    C   1.0     0.706725     0.131961     0.446122  Biso 1.000000     C
    C   1.0     0.150768     0.044965     0.439903  Biso 1.000000     C
    C   1.0     0.650775     0.044947     0.439906  Biso 1.000000     C
    C   1.0     0.113554     0.997768     0.493795  Biso 1.000000     C
    C   1.0     0.613535     0.997767     0.493798  Biso 1.000000     C
    C   1.0     0.128875     0.037365     0.555440  Biso 1.000000     C
    C   1.0     0.628862     0.037337     0.555450  Biso 1.000000     C
    C   1.0     0.097426     0.977209     0.613063  Biso 1.000000     C
    C   1.0     0.597455     0.977201     0.613093  Biso 1.000000     C
    C   1.0     0.242561     0.825072     0.610596  Biso 1.000000     C
    C   1.0     0.742569     0.825096     0.610644  Biso 1.000000     C
    C   1.0     0.071554     0.629585     0.438722  Biso 1.000000     C
    C   1.0     0.571580     0.629564     0.438737  Biso 1.000000     C
    C   1.0     0.032475     0.675869     0.492547  Biso 1.000000     C
    C   1.0     0.532441     0.675817     0.492545  Biso 1.000000     C
    C   1.0     0.043140     0.632062     0.553711  Biso 1.000000     C
    C   1.0     0.543122     0.632024     0.553707  Biso 1.000000     C
    C   1.0     0.099132     0.544962     0.559950  Biso 1.000000     C
    C   1.0     0.599190     0.544996     0.559972  Biso 1.000000     C
    C   1.0     0.136364     0.497657     0.506077  Biso 1.000000     C
    C   1.0     0.636371     0.497637     0.506092  Biso 1.000000     C
    C   1.0     0.120946     0.537088     0.444397  Biso 1.000000     C
    C   1.0     0.621015     0.537100     0.444412  Biso 1.000000     C
    C   1.0     0.152463     0.476787     0.386818  Biso 1.000000     C
    C   1.0     0.652423     0.476822     0.386796  Biso 1.000000     C
    C   1.0     0.007457     0.324703     0.389487  Biso 1.000000     C
    C   1.0     0.507469     0.324741     0.389475  Biso 1.000000     C
    S   1.0     0.189825     0.923336     0.837568  Biso 1.000000     S
    S   1.0     0.689907     0.923456     0.837561  Biso 1.000000     S
    S   1.0     0.060087     0.422795     0.162453  Biso 1.000000     S
    S   1.0     0.560108     0.422746     0.162415  Biso 1.000000     S
    S   1.0     0.310018     0.076439     0.337498  Biso 1.000000     S
    S   1.0     0.810062     0.076529     0.337557  Biso 1.000000     S
    S   1.0     0.439790     0.577262     0.662412  Biso 1.000000     S
    S   1.0     0.939882     0.577183     0.662434  Biso 1.000000     S
    S   1.0     0.310123     0.076565     0.162417  Biso 1.000000     S
    S   1.0     0.810043     0.076490     0.162430  Biso 1.000000     S
    S   1.0     0.439891     0.577207     0.837531  Biso 1.000000     S
    S   1.0     0.939887     0.577234     0.837538  Biso 1.000000     S
    S   1.0     0.189803     0.923313     0.662377  Biso 1.000000     S
    S   1.0     0.689883     0.923434     0.662405  Biso 1.000000     S
    S   1.0     0.060193     0.422675     0.337564  Biso 1.000000     S
    S   1.0     0.560092     0.422751     0.337533  Biso 1.000000     S
   Cu   1.0     0.129120     0.839321     0.749981  Biso 1.000000    Cu
   Cu   1.0     0.629177     0.839417     0.749980  Biso 1.000000    Cu
   Cu   1.0     0.120852     0.337969     0.249986  Biso 1.000000    Cu
   Cu   1.0     0.620811     0.337995     0.249994  Biso 1.000000    Cu
   Cu   1.0     0.370818     0.160576     0.249990  Biso 1.000000    Cu
   Cu   1.0     0.870797     0.160535     0.249992  Biso 1.000000    Cu
   Cu   1.0     0.379161     0.662017     0.749978  Biso 1.000000    Cu
   Cu   1.0     0.879195     0.661996     0.749980  Biso 1.000000    Cu
    I   1.0     0.447257     0.855252     0.750008  Biso 1.000000     I
    I   1.0     0.947151     0.855297     0.749981  Biso 1.000000     I
    I   1.0     0.302795     0.354293     0.249963  Biso 1.000000     I
    I   1.0     0.802746     0.354233     0.249993  Biso 1.000000     I
    I   1.0     0.052776     0.144709     0.249939  Biso 1.000000     I
    I   1.0     0.552753     0.144748     0.249997  Biso 1.000000     I
    I   1.0     0.197249     0.645646     0.749952  Biso 1.000000     I
    I   1.0     0.697321     0.645761     0.750025  Biso 1.000000     I
