#======================================================================

# CRYSTAL DATA

#----------------------------------------------------------------------

data_VESTA_phase_1


_pd_phase_name                         MOF
_cell_length_a                         21.34400
_cell_length_b                         15.68000
_cell_length_c                         20.83700
_cell_angle_alpha                      111.48100
_cell_angle_beta                       89.98100
_cell_angle_gamma                      89.97200
_symmetry_space_group_name_H-M         "P 1"
_symmetry_Int_Tables_number            1

loop_
_symmetry_equiv_pos_as_xyz
   "x, y, z"

loop_
   _atom_site_label
   _atom_site_occupancy
   _atom_site_fract_x
   _atom_site_fract_y
   _atom_site_fract_z
   _atom_site_adp_type
   _atom_site_B_iso_or_equiv
   _atom_site_type_symbol
    H   1.0     0.239743     0.309097     0.655148  Biso 1.000000     H
    H   1.0     0.739489     0.308779     0.655572  Biso 1.000000     H
    H   1.0     0.308064     0.171773     0.636123  Biso 1.000000     H
    H   1.0     0.807709     0.171398     0.636818  Biso 1.000000     H
    H   1.0     0.130372     0.202330     0.658326  Biso 1.000000     H
    H   1.0     0.629838     0.202142     0.657093  Biso 1.000000     H
    H   1.0     0.311576     0.434293     0.861153  Biso 1.000000     H
    H   1.0     0.811182     0.434395     0.861605  Biso 1.000000     H
    H   1.0     0.014016     0.672098     0.648142  Biso 1.000000     H
    H   1.0     0.513865     0.671812     0.648618  Biso 1.000000     H
    H   1.0     0.083927     0.546528     0.655178  Biso 1.000000     H
    H   1.0     0.583844     0.546274     0.655711  Biso 1.000000     H
    H   1.0     0.137747     0.717665     0.860439  Biso 1.000000     H
    H   1.0     0.638415     0.718113     0.860512  Biso 1.000000     H
    H   1.0     0.068289     0.842933     0.854101  Biso 1.000000     H
    H   1.0     0.568924     0.843357     0.854106  Biso 1.000000     H
    H   1.0    -0.014788     0.642053     0.860747  Biso 1.000000     H
    H   1.0     0.485412     0.642765     0.861357  Biso 1.000000     H
    H   1.0     0.380490     0.651519     0.810096  Biso 1.000000     H
    H   1.0     0.880363     0.650140     0.809206  Biso 1.000000     H
    H   1.0     0.402445     0.374154     0.667328  Biso 1.000000     H
    H   1.0     0.902884     0.372579     0.666984  Biso 1.000000     H
    H   1.0     0.007856     0.364672     0.717938  Biso 1.000000     H
    H   1.0     0.507480     0.365600     0.717982  Biso 1.000000     H
    H   1.0     0.183404     0.364965     0.933528  Biso 1.000000     H
    H   1.0     0.683009     0.365584     0.935074  Biso 1.000000     H
    H   1.0     0.242333     0.642287     0.975403  Biso 1.000000     H
    H   1.0     0.741916     0.642268     0.974297  Biso 1.000000     H
    H   1.0     0.151728     0.573860     0.557302  Biso 1.000000     H
    H   1.0     0.651002     0.574010     0.557750  Biso 1.000000     H
    H   1.0     0.321641     0.428355     0.560352  Biso 1.000000     H
    H   1.0     0.820192     0.426567     0.560029  Biso 1.000000     H
    H   1.0    -0.010863     0.190146     0.844645  Biso 1.000000     H
    H   1.0     0.489656     0.189936     0.844226  Biso 1.000000     H
    H   1.0     0.057445     0.327565     0.864192  Biso 1.000000     H
    H   1.0     0.557537     0.327653     0.863222  Biso 1.000000     H
    H   1.0     0.380225     0.297594     0.842183  Biso 1.000000     H
    H   1.0     0.879674     0.297575     0.842931  Biso 1.000000     H
    H   1.0     0.061717     0.065545     0.638850  Biso 1.000000     H
    H   1.0     0.561638     0.065028     0.638195  Biso 1.000000     H
    H   1.0     0.263826     0.827841     0.851531  Biso 1.000000     H
    H   1.0     0.763845     0.827326     0.851226  Biso 1.000000     H
    H   1.0     0.333902     0.953287     0.844698  Biso 1.000000     H
    H   1.0     0.833392     0.953284     0.844262  Biso 1.000000     H
    H   1.0     0.388375     0.782029     0.639637  Biso 1.000000     H
    H   1.0     0.888707     0.781781     0.639569  Biso 1.000000     H
    H   1.0     0.318782     0.656846     0.645763  Biso 1.000000     H
    H   1.0     0.819647     0.656085     0.645841  Biso 1.000000     H
    H   1.0     0.235609     0.857967     0.638286  Biso 1.000000     H
    H   1.0     0.735867     0.857394     0.638003  Biso 1.000000     H
    H   1.0     0.130693     0.848837     0.689426  Biso 1.000000     H
    H   1.0     0.631041     0.848143     0.689382  Biso 1.000000     H
    H   1.0     0.152557     0.125517     0.833289  Biso 1.000000     H
    H   1.0     0.652623     0.125182     0.832708  Biso 1.000000     H
    H   1.0     0.257582     0.134454     0.782737  Biso 1.000000     H
    H   1.0     0.757571     0.134218     0.781966  Biso 1.000000     H
    H   1.0     0.432987     0.133764     0.565384  Biso 1.000000     H
    H   1.0     0.933942     0.134402     0.565285  Biso 1.000000     H
    H   1.0     0.492569     0.856966     0.524839  Biso 1.000000     H
    H   1.0     0.992244     0.857068     0.524783  Biso 1.000000     H
    H   1.0     0.402912    -0.075062     0.941850  Biso 1.000000     H
    H   1.0     0.901756    -0.075002     0.942105  Biso 1.000000     H
    H   1.0     0.070531     0.000000     0.939907  Biso 1.000000     H
    H   1.0     0.571419     0.000000     0.939781  Biso 1.000000     H
    H   1.0     0.260813     0.691457     0.344137  Biso 1.000000     H
    H   1.0     0.760077     0.691355     0.344643  Biso 1.000000     H
    H   1.0     0.192649     0.828855     0.362775  Biso 1.000000     H
    H   1.0     0.691610     0.828435     0.363357  Biso 1.000000     H
    H   1.0     0.369300     0.796746     0.340416  Biso 1.000000     H
    H   1.0     0.869777     0.797760     0.341624  Biso 1.000000     H
    H   1.0     0.188645     0.565208     0.138372  Biso 1.000000     H
    H   1.0     0.688533     0.565472     0.138566  Biso 1.000000     H
    H   1.0     0.486020     0.327496     0.351281  Biso 1.000000     H
    H   1.0     0.985682     0.327824     0.351897  Biso 1.000000     H
    H   1.0     0.416329     0.453419     0.344374  Biso 1.000000     H
    H   1.0     0.915831     0.453450     0.344856  Biso 1.000000     H
    H   1.0     0.361965     0.282466     0.139274  Biso 1.000000     H
    H   1.0     0.862185     0.282487     0.139487  Biso 1.000000     H
    H   1.0     0.431188     0.156840     0.145485  Biso 1.000000     H
    H   1.0     0.931578     0.157163     0.145834  Biso 1.000000     H
    H   1.0     0.514572     0.357588     0.138863  Biso 1.000000     H
    H   1.0     0.000000     0.357796     0.139167  Biso 1.000000     H
    H   1.0     0.119590     0.349604     0.190533  Biso 1.000000     H
    H   1.0     0.619459     0.349095     0.190257  Biso 1.000000     H
    H   1.0     0.097318     0.627236     0.332726  Biso 1.000000     H
    H   1.0     0.597519     0.626833     0.332369  Biso 1.000000     H
    H   1.0     0.492536     0.635165     0.281525  Biso 1.000000     H
    H   1.0     0.992281     0.635244     0.281942  Biso 1.000000     H
    H   1.0     0.316624     0.632274     0.065680  Biso 1.000000     H
    H   1.0     0.816410     0.633804     0.064907  Biso 1.000000     H
    H   1.0     0.257684     0.354957     0.023824  Biso 1.000000     H
    H   1.0     0.757529     0.357108     0.025661  Biso 1.000000     H
    H   1.0     0.349193     0.426415     0.442400  Biso 1.000000     H
    H   1.0     0.847734     0.424709     0.442094  Biso 1.000000     H
    H   1.0     0.179278     0.571915     0.439350  Biso 1.000000     H
    H   1.0     0.678554     0.572168     0.439816  Biso 1.000000     H
    H   1.0     0.510580     0.810252     0.154539  Biso 1.000000     H
    H   1.0     0.000000     0.809891     0.155265  Biso 1.000000     H
    H   1.0     0.442410     0.672581     0.134549  Biso 1.000000     H
    H   1.0     0.942635     0.672512     0.135731  Biso 1.000000     H
    H   1.0     0.120151     0.702006     0.156954  Biso 1.000000     H
    H   1.0     0.619738     0.701958     0.157229  Biso 1.000000     H
    H   1.0     0.437840     0.933793     0.360350  Biso 1.000000     H
    H   1.0     0.938463     0.934505     0.361088  Biso 1.000000     H
    H   1.0     0.235960     0.172883     0.148219  Biso 1.000000     H
    H   1.0     0.736501     0.172274     0.148694  Biso 1.000000     H
    H   1.0     0.166329     0.046997     0.155163  Biso 1.000000     H
    H   1.0     0.666504     0.046693     0.155433  Biso 1.000000     H
    H   1.0     0.111610     0.218129     0.360170  Biso 1.000000     H
    H   1.0     0.611282     0.218170     0.360162  Biso 1.000000     H
    H   1.0     0.180785     0.343738     0.353934  Biso 1.000000     H
    H   1.0     0.680780     0.343508     0.354120  Biso 1.000000     H
    H   1.0     0.265276     0.141837     0.360481  Biso 1.000000     H
    H   1.0     0.764147     0.141796     0.361567  Biso 1.000000     H
    H   1.0     0.369910     0.150347     0.308606  Biso 1.000000     H
    H   1.0     0.869094     0.151073     0.310538  Biso 1.000000     H
    H   1.0     0.347060     0.873656     0.165097  Biso 1.000000     H
    H   1.0     0.847512     0.874286     0.166765  Biso 1.000000     H
    H   1.0     0.242318     0.865324     0.216410  Biso 1.000000     H
    H   1.0     0.742457     0.865206     0.217198  Biso 1.000000     H
    H   1.0     0.066614     0.865721     0.434132  Biso 1.000000     H
    H   1.0     0.566460     0.866171     0.433911  Biso 1.000000     H
    H   1.0     0.008321     0.143057     0.474638  Biso 1.000000     H
    H   1.0     0.506867     0.142968     0.474454  Biso 1.000000     H
    H   1.0     0.098101     0.000000     0.057836  Biso 1.000000     H
    H   1.0     0.599162     0.000000     0.057621  Biso 1.000000     H
    H   1.0     0.430644    -0.073404     0.059696  Biso 1.000000     H
    H   1.0     0.929330    -0.073094     0.060034  Biso 1.000000     H
    C   1.0     0.271624     0.379234     0.759282  Biso 1.000000     C
    C   1.0     0.771324     0.379078     0.759692  Biso 1.000000     C
    C   1.0     0.270721     0.305868     0.695788  Biso 1.000000     C
    C   1.0     0.770420     0.305606     0.696263  Biso 1.000000     C
    C   1.0     0.308854     0.229797     0.685061  Biso 1.000000     C
    C   1.0     0.808484     0.229524     0.685696  Biso 1.000000     C
    C   1.0     0.097950     0.272940     0.762258  Biso 1.000000     C
    C   1.0     0.597630     0.272929     0.761082  Biso 1.000000     C
    C   1.0     0.098944     0.199383     0.698646  Biso 1.000000     C
    C   1.0     0.598647     0.199157     0.697590  Biso 1.000000     C
    C   1.0     0.310793     0.376434     0.812225  Biso 1.000000     C
    C   1.0     0.810403     0.376426     0.812742  Biso 1.000000     C
    C   1.0     0.037832     0.765487     0.750021  Biso 1.000000     C
    C   1.0     0.538172     0.765525     0.750199  Biso 1.000000     C
    C   1.0     0.041774     0.681606     0.694127  Biso 1.000000     C
    C   1.0     0.541849     0.681459     0.694471  Biso 1.000000     C
    C   1.0     0.080305     0.611990     0.698068  Biso 1.000000     C
    C   1.0     0.580391     0.611901     0.698450  Biso 1.000000     C
    C   1.0     0.114954     0.625700     0.757918  Biso 1.000000     C
    C   1.0     0.615274     0.625892     0.758184  Biso 1.000000     C
    C   1.0     0.110502     0.708455     0.814168  Biso 1.000000     C
    C   1.0     0.611028     0.708793     0.814315  Biso 1.000000     C
    C   1.0     0.071927     0.778127     0.810499  Biso 1.000000     C
    C   1.0     0.572442     0.778427     0.810608  Biso 1.000000     C
    C   1.0     0.002702     0.503016     0.792619  Biso 1.000000     C
    C   1.0     0.502571     0.503801     0.792900  Biso 1.000000     C
    C   1.0    -0.033477     0.583303     0.818651  Biso 1.000000     C
    C   1.0     0.466566     0.584224     0.819204  Biso 1.000000     C
    C   1.0     0.408432     0.589083     0.790681  Biso 1.000000     C
    C   1.0     0.908410     0.587799     0.789954  Biso 1.000000     C
    C   1.0     0.385428     0.513218     0.735613  Biso 1.000000     C
    C   1.0     0.885543     0.511725     0.734950  Biso 1.000000     C
    C   1.0     0.421536     0.433041     0.709032  Biso 1.000000     C
    C   1.0     0.921815     0.431671     0.708639  Biso 1.000000     C
    C   1.0    -0.019972     0.427213     0.737218  Biso 1.000000     C
    C   1.0     0.479751     0.428218     0.737439  Biso 1.000000     C
    C   1.0     0.208337     0.504408     0.949287  Biso 1.000000     C
    C   1.0     0.707913     0.504599     0.949469  Biso 1.000000     C
    C   1.0     0.212565     0.423251     0.962882  Biso 1.000000     C
    C   1.0     0.712223     0.424069     0.963914  Biso 1.000000     C
    C   1.0     0.246059     0.579679     0.986413  Biso 1.000000     C
    C   1.0     0.745683     0.580141     0.985953  Biso 1.000000     C
    C   1.0     0.234840     0.500475     0.565132  Biso 1.000000     C
    C   1.0     0.733824     0.499852     0.565263  Biso 1.000000     C
    C   1.0     0.194695     0.541472     0.531503  Biso 1.000000     C
    C   1.0     0.693827     0.541277     0.531806  Biso 1.000000     C
    C   1.0     0.290745     0.459233     0.533273  Biso 1.000000     C
    C   1.0     0.789466     0.457933     0.533139  Biso 1.000000     C
    C   1.0     0.021494     0.120311     0.740645  Biso 1.000000     C
    C   1.0     0.521721     0.120004     0.740135  Biso 1.000000     C
    C   1.0     0.020329     0.193534     0.804207  Biso 1.000000     C
    C   1.0     0.520627     0.193348     0.803621  Biso 1.000000     C
    C   1.0     0.058425     0.269644     0.815199  Biso 1.000000     C
    C   1.0     0.558470     0.269613     0.814296  Biso 1.000000     C
    C   1.0     0.348177     0.226645     0.738177  Biso 1.000000     C
    C   1.0     0.847714     0.226504     0.738921  Biso 1.000000     C
    C   1.0     0.348959     0.300370     0.801699  Biso 1.000000     C
    C   1.0     0.848480     0.300327     0.802382  Biso 1.000000     C
    C   1.0     0.060809     0.123282     0.687850  Biso 1.000000     C
    C   1.0     0.560772     0.122893     0.687120  Biso 1.000000     C
    C   1.0     0.287991     0.734340     0.749770  Biso 1.000000     C
    C   1.0     0.788516     0.733755     0.749675  Biso 1.000000     C
    C   1.0     0.291773     0.818264     0.805640  Biso 1.000000     C
    C   1.0     0.791861     0.817861     0.805402  Biso 1.000000     C
    C   1.0     0.330378     0.887826     0.801798  Biso 1.000000     C
    C   1.0     0.830141     0.887673     0.801482  Biso 1.000000     C
    C   1.0     0.365218     0.874059     0.742035  Biso 1.000000     C
    C   1.0     0.865070     0.873923     0.741787  Biso 1.000000     C
    C   1.0     0.360925     0.791276     0.685804  Biso 1.000000     C
    C   1.0     0.861166     0.790974     0.685666  Biso 1.000000     C
    C   1.0     0.322297     0.721644     0.689379  Biso 1.000000     C
    C   1.0     0.822854     0.721076     0.689316  Biso 1.000000     C
    C   1.0     0.252790     0.996579     0.707294  Biso 1.000000     C
    C   1.0     0.752818     0.996204     0.706752  Biso 1.000000     C
    C   1.0     0.216761     0.916279     0.680671  Biso 1.000000     C
    C   1.0     0.716951     0.915739     0.680311  Biso 1.000000     C
    C   1.0     0.158612     0.911220     0.709126  Biso 1.000000     C
    C   1.0     0.658881     0.910619     0.708885  Biso 1.000000     C
    C   1.0     0.135539     0.986775     0.764458  Biso 1.000000     C
    C   1.0     0.635802     0.986296     0.764107  Biso 1.000000     C
    C   1.0     0.171649     0.066836     0.791354  Biso 1.000000     C
    C   1.0     0.671782     0.066487     0.790843  Biso 1.000000     C
    C   1.0     0.229898     0.071854     0.763011  Biso 1.000000     C
    C   1.0     0.729945     0.071562     0.762394  Biso 1.000000     C
    C   1.0     0.458285     0.994690     0.550337  Biso 1.000000     C
    C   1.0     0.958532     0.995103     0.550306  Biso 1.000000     C
    C   1.0     0.462219     0.075424     0.536163  Biso 1.000000     C
    C   1.0     0.963010     0.075814     0.536155  Biso 1.000000     C
    C   1.0     0.496045     0.919274     0.513396  Biso 1.000000     C
    C   1.0     0.996100     0.919406     0.513426  Biso 1.000000     C
    C   1.0    -0.015685    -0.000365     0.934682  Biso 1.000000     C
    C   1.0     0.485316    -0.000077     0.934565  Biso 1.000000     C
    C   1.0     0.445613    -0.042078     0.967854  Biso 1.000000     C
    C   1.0     0.944481    -0.042068     0.968082  Biso 1.000000     C
    C   1.0     0.039886     0.000000     0.966785  Biso 1.000000     C
    C   1.0     0.540878     0.000000     0.966623  Biso 1.000000     C
    C   1.0     0.228758     0.620866     0.240147  Biso 1.000000     C
    C   1.0     0.728382     0.620922     0.240476  Biso 1.000000     C
    C   1.0     0.229791     0.694501     0.303474  Biso 1.000000     C
    C   1.0     0.729147     0.694400     0.303908  Biso 1.000000     C
    C   1.0     0.191751     0.770592     0.313983  Biso 1.000000     C
    C   1.0     0.690925     0.770339     0.314457  Biso 1.000000     C
    C   1.0     0.401878     0.726635     0.236482  Biso 1.000000     C
    C   1.0     0.902160     0.727136     0.237679  Biso 1.000000     C
    C   1.0     0.400761     0.799975     0.300213  Biso 1.000000     C
    C   1.0     0.901201     0.800689     0.301296  Biso 1.000000     C
    C   1.0     0.189534     0.623315     0.187150  Biso 1.000000     C
    C   1.0     0.689244     0.623445     0.187427  Biso 1.000000     C
    C   1.0     0.461798     0.234178     0.249536  Biso 1.000000     C
    C   1.0     0.961968     0.234530     0.249957  Biso 1.000000     C
    C   1.0     0.458157     0.318123     0.305392  Biso 1.000000     C
    C   1.0     0.957980     0.318371     0.305885  Biso 1.000000     C
    C   1.0     0.419766     0.387898     0.301523  Biso 1.000000     C
    C   1.0     0.919485     0.388020     0.301940  Biso 1.000000     C
    C   1.0     0.384979     0.374260     0.241778  Biso 1.000000     C
    C   1.0     0.884909     0.374389     0.242056  Biso 1.000000     C
    C   1.0     0.389246     0.291512     0.185495  Biso 1.000000     C
    C   1.0     0.889377     0.291653     0.185786  Biso 1.000000     C
    C   1.0     0.427694     0.221669     0.189089  Biso 1.000000     C
    C   1.0     0.927918     0.221944     0.189459  Biso 1.000000     C
    C   1.0     0.497414     0.496721     0.206962  Biso 1.000000     C
    C   1.0     0.997309     0.496878     0.207281  Biso 1.000000     C
    C   1.0     0.533416     0.416270     0.180897  Biso 1.000000     C
    C   1.0     0.000000     0.416538     0.181220  Biso 1.000000     C
    C   1.0     0.091587     0.411986     0.209820  Biso 1.000000     C
    C   1.0     0.591530     0.411554     0.209501  Biso 1.000000     C
    C   1.0     0.114549     0.488064     0.264757  Biso 1.000000     C
    C   1.0     0.614535     0.487579     0.264440  Biso 1.000000     C
    C   1.0     0.078317     0.568154     0.291117  Biso 1.000000     C
    C   1.0     0.578440     0.567804     0.290778  Biso 1.000000     C
    C   1.0     0.520239     0.572497     0.262270  Biso 1.000000     C
    C   1.0     0.000000     0.572668     0.262632  Biso 1.000000     C
    C   1.0     0.291715     0.492818     0.049912  Biso 1.000000     C
    C   1.0     0.791524     0.494765     0.050481  Biso 1.000000     C
    C   1.0     0.287476     0.573976     0.036318  Biso 1.000000     C
    C   1.0     0.787212     0.575306     0.036052  Biso 1.000000     C
    C   1.0     0.253973     0.417557     0.012800  Biso 1.000000     C
    C   1.0     0.753756     0.419228     0.014000  Biso 1.000000     C
    C   1.0     0.266059     0.499742     0.434545  Biso 1.000000     C
    C   1.0     0.765048     0.499232     0.434720  Biso 1.000000     C
    C   1.0     0.306223     0.458795     0.468194  Biso 1.000000     C
    C   1.0     0.804947     0.457541     0.468075  Biso 1.000000     C
    C   1.0     0.210175     0.541034     0.466427  Biso 1.000000     C
    C   1.0     0.709308     0.540892     0.466744  Biso 1.000000     C
    C   1.0     0.478135     0.879536     0.258581  Biso 1.000000     C
    C   1.0     0.978663     0.879738     0.259282  Biso 1.000000     C
    C   1.0     0.479403     0.806557     0.194893  Biso 1.000000     C
    C   1.0     0.979799     0.806512     0.195719  Biso 1.000000     C
    C   1.0     0.441397     0.730304     0.183656  Biso 1.000000     C
    C   1.0     0.941683     0.730420     0.184733  Biso 1.000000     C
    C   1.0     0.152407     0.773442     0.260793  Biso 1.000000     C
    C   1.0     0.651656     0.773240     0.261220  Biso 1.000000     C
    C   1.0     0.151465     0.699409     0.197454  Biso 1.000000     C
    C   1.0     0.650998     0.699379     0.197778  Biso 1.000000     C
    C   1.0     0.438816     0.876214     0.311259  Biso 1.000000     C
    C   1.0     0.939355     0.876771     0.312086  Biso 1.000000     C
    C   1.0     0.211620     0.266252     0.249961  Biso 1.000000     C
    C   1.0     0.711928     0.265907     0.250269  Biso 1.000000     C
    C   1.0     0.208062     0.182291     0.194114  Biso 1.000000     C
    C   1.0     0.708400     0.181867     0.194483  Biso 1.000000     C
    C   1.0     0.169724     0.112517     0.198016  Biso 1.000000     C
    C   1.0     0.669850     0.112229     0.198275  Biso 1.000000     C
    C   1.0     0.134952     0.126189     0.257803  Biso 1.000000     C
    C   1.0     0.634791     0.126047     0.257905  Biso 1.000000     C
    C   1.0     0.139040     0.209012     0.314015  Biso 1.000000     C
    C   1.0     0.638863     0.208919     0.314081  Biso 1.000000     C
    C   1.0     0.177412     0.278850     0.310385  Biso 1.000000     C
    C   1.0     0.677445     0.278632     0.310553  Biso 1.000000     C
    C   1.0     0.247642     0.003216     0.291756  Biso 1.000000     C
    C   1.0     0.747111     0.003131     0.292594  Biso 1.000000     C
    C   1.0     0.283855     0.083370     0.318017  Biso 1.000000     C
    C   1.0     0.783071     0.083496     0.319228  Biso 1.000000     C
    C   1.0     0.341857     0.088081     0.289133  Biso 1.000000     C
    C   1.0     0.841233     0.088635     0.290828  Biso 1.000000     C
    C   1.0     0.364586     0.012320     0.233712  Biso 1.000000     C
    C   1.0     0.864380     0.013094     0.235534  Biso 1.000000     C
    C   1.0     0.328240     0.932470     0.207125  Biso 1.000000     C
    C   1.0     0.828346     0.932957     0.208650  Biso 1.000000     C
    C   1.0     0.270150     0.927789     0.235903  Biso 1.000000     C
    C   1.0     0.770084     0.927859     0.236932  Biso 1.000000     C
    C   1.0     0.042046     0.005037     0.449140  Biso 1.000000     C
    C   1.0     0.541177     0.005238     0.448973  Biso 1.000000     C
    C   1.0     0.037560     0.924319     0.463276  Biso 1.000000     C
    C   1.0     0.537215     0.924496     0.463124  Biso 1.000000     C
    C   1.0     0.004472     0.080729     0.486008  Biso 1.000000     C
    C   1.0     0.503396     0.080650     0.485888  Biso 1.000000     C
    C   1.0     0.516752     0.000000     0.064930  Biso 1.000000     C
    C   1.0     0.000000     0.000000     0.065253  Biso 1.000000     C
    C   1.0     0.055381     0.000000     0.031856  Biso 1.000000     C
    C   1.0     0.556464     0.000000     0.031629  Biso 1.000000     C
    C   1.0     0.461202    -0.041779     0.032848  Biso 1.000000     C
    C   1.0     0.959978    -0.041618     0.033156  Biso 1.000000     C
    O   1.0     0.058846     0.499549     0.821943  Biso 1.000000     O
    O   1.0     0.558731     0.499949     0.822023  Biso 1.000000     O
    O   1.0     0.233954     0.454911     0.769427  Biso 1.000000     O
    O   1.0     0.733769     0.454804     0.769629  Biso 1.000000     O
    O   1.0     0.167940     0.511359     0.901275  Biso 1.000000     O
    O   1.0     0.667343     0.510591     0.901293  Biso 1.000000     O
    O   1.0     0.154581     0.557318     0.760893  Biso 1.000000     O
    O   1.0     0.654843     0.557515     0.761210  Biso 1.000000     O
    O   1.0     0.135793     0.346044     0.771782  Biso 1.000000     O
    O   1.0     0.635098     0.346246     0.770168  Biso 1.000000     O
    O   1.0     0.000726     0.832592     0.744333  Biso 1.000000     O
    O   1.0     0.501117     0.832536     0.744350  Biso 1.000000     O
    O   1.0     0.328411     0.516473     0.707968  Biso 1.000000     O
    O   1.0     0.828511     0.514712     0.707188  Biso 1.000000     O
    O   1.0     0.218557     0.500217     0.628273  Biso 1.000000     O
    O   1.0     0.717670     0.499935     0.628544  Biso 1.000000     O
    O   1.0     0.309007     0.000000     0.678219  Biso 1.000000     O
    O   1.0     0.808935     0.000000     0.677568  Biso 1.000000     O
    O   1.0    -0.016053     0.044534     0.730321  Biso 1.000000     O
    O   1.0     0.484208     0.044282     0.730073  Biso 1.000000     O
    O   1.0     0.418111     0.988333     0.598726  Biso 1.000000     O
    O   1.0     0.918019     0.989117     0.598566  Biso 1.000000     O
    O   1.0     0.404843     0.942404     0.739076  Biso 1.000000     O
    O   1.0     0.904531     0.942449     0.738900  Biso 1.000000     O
    O   1.0     0.386066     0.153588     0.728885  Biso 1.000000     O
    O   1.0     0.885471     0.153420     0.729886  Biso 1.000000     O
    O   1.0     0.250843     0.667282     0.755418  Biso 1.000000     O
    O   1.0     0.751771     0.666452     0.755495  Biso 1.000000     O
    O   1.0     0.078457     0.983273     0.791966  Biso 1.000000     O
    O   1.0     0.578798     0.982881     0.791724  Biso 1.000000     O
    O   1.0    -0.031925    -0.000206     0.871509  Biso 1.000000     O
    O   1.0     0.468973     0.000164     0.871465  Biso 1.000000     O
    O   1.0     0.441239     0.500325     0.177779  Biso 1.000000     O
    O   1.0     0.941150     0.500443     0.178017  Biso 1.000000     O
    O   1.0     0.266377     0.545219     0.230259  Biso 1.000000     O
    O   1.0     0.766099     0.545347     0.230527  Biso 1.000000     O
    O   1.0     0.332138     0.485840     0.097902  Biso 1.000000     O
    O   1.0     0.832068     0.488670     0.098651  Biso 1.000000     O
    O   1.0     0.345480     0.442797     0.238924  Biso 1.000000     O
    O   1.0     0.845352     0.442844     0.239077  Biso 1.000000     O
    O   1.0     0.364101     0.653418     0.226686  Biso 1.000000     O
    O   1.0     0.864289     0.654060     0.228164  Biso 1.000000     O
    O   1.0     0.498584     0.166859     0.255354  Biso 1.000000     O
    O   1.0     0.999076     0.167427     0.255641  Biso 1.000000     O
    O   1.0     0.171614     0.485071     0.292439  Biso 1.000000     O
    O   1.0     0.671548     0.484369     0.292130  Biso 1.000000     O
    O   1.0     0.282307     0.499861     0.371344  Biso 1.000000     O
    O   1.0     0.781404     0.499763     0.371672  Biso 1.000000     O
    O   1.0     0.191614    -0.000387     0.321311  Biso 1.000000     O
    O   1.0     0.690853    -0.000780     0.321587  Biso 1.000000     O
    O   1.0     0.515599     0.955464     0.269177  Biso 1.000000     O
    O   1.0     0.000000     0.955530     0.269586  Biso 1.000000     O
    O   1.0     0.082568     0.011044     0.400888  Biso 1.000000     O
    O   1.0     0.581448     0.011533     0.400640  Biso 1.000000     O
    O   1.0     0.095508     0.057695     0.260771  Biso 1.000000     O
    O   1.0     0.595163     0.057652     0.260772  Biso 1.000000     O
    O   1.0     0.114683     0.846548     0.269766  Biso 1.000000     O
    O   1.0     0.613740     0.846196     0.270242  Biso 1.000000     O
    O   1.0     0.248439     0.333540     0.244242  Biso 1.000000     O
    O   1.0     0.748972     0.333062     0.244602  Biso 1.000000     O
    O   1.0     0.421590     0.015289     0.205824  Biso 1.000000     O
    O   1.0     0.921465     0.016654     0.208057  Biso 1.000000     O
    O   1.0     0.533052     0.000000     0.128093  Biso 1.000000     O
    O   1.0     0.000000     0.000000     0.128414  Biso 1.000000     O
   Ti   1.0     0.142404     0.471076     0.811431  Biso 1.000000    Ti
   Ti   1.0     0.642164     0.471097     0.811315  Biso 1.000000    Ti
   Ti   1.0     0.244575     0.541167     0.718060  Biso 1.000000    Ti
   Ti   1.0     0.744757     0.540516     0.717984  Biso 1.000000    Ti
   Ti   1.0     0.392564     0.028551     0.688594  Biso 1.000000    Ti
   Ti   1.0     0.892414     0.028563     0.688463  Biso 1.000000    Ti
   Ti   1.0    -0.005408     0.958707     0.781840  Biso 1.000000    Ti
   Ti   1.0     0.494942     0.958584     0.781676  Biso 1.000000    Ti
   Ti   1.0     0.357677     0.528280     0.187862  Biso 1.000000    Ti
   Ti   1.0     0.857610     0.529023     0.188498  Biso 1.000000    Ti
   Ti   1.0     0.255402     0.459449     0.281839  Biso 1.000000    Ti
   Ti   1.0     0.755342     0.459152     0.281919  Biso 1.000000    Ti
   Ti   1.0     0.108029     0.971469     0.310969  Biso 1.000000    Ti
   Ti   1.0     0.607286     0.971257     0.310901  Biso 1.000000    Ti
   Ti   1.0     0.505352     0.040905     0.217356  Biso 1.000000    Ti
   Ti   1.0     0.000000     0.041318     0.218094  Biso 1.000000    Ti
