#======================================================================

# CRYSTAL DATA

#----------------------------------------------------------------------

data_VESTA_phase_1


_pd_phase_name                         MOF
_cell_length_a                         13.23400
_cell_length_b                         13.27500
_cell_length_c                         14.00300
_cell_angle_alpha                      83.84800
_cell_angle_beta                       78.34400
_cell_angle_gamma                      88.40800
_symmetry_space_group_name_H-M         "P 1"
_symmetry_Int_Tables_number            1

loop_
_symmetry_equiv_pos_as_xyz
   "x, y, z"

loop_
   _atom_site_label
   _atom_site_occupancy
   _atom_site_fract_x
   _atom_site_fract_y
   _atom_site_fract_z
   _atom_site_adp_type
   _atom_site_B_iso_or_equiv
   _atom_site_type_symbol
    H   1.0     0.780905     0.319317     0.965077  Biso 1.000000     H
    H   1.0     0.590918     0.320122     0.978703  Biso 1.000000     H
    H   1.0     0.827000     0.332105     0.651476  Biso 1.000000     H
    H   1.0     0.438287     0.323312     0.898379  Biso 1.000000     H
    H   1.0     0.483175     0.335832     0.585279  Biso 1.000000     H
    H   1.0     0.673896     0.337460     0.570509  Biso 1.000000     H
    H   1.0     0.146290     0.000000     0.651321  Biso 1.000000     H
    H   1.0     0.104788     0.810713     0.981868  Biso 1.000000     H
    H   1.0     0.107589     0.999123     0.963642  Biso 1.000000     H
    H   1.0     0.116074     0.648920     0.905062  Biso 1.000000     H
    H   1.0     0.151936     0.654344     0.592933  Biso 1.000000     H
    H   1.0     0.154618     0.842985     0.574541  Biso 1.000000     H
    H   1.0     0.115745     0.168308     0.051309  Biso 1.000000     H
    H   1.0     0.123405     0.161888     0.228066  Biso 1.000000     H
    H   1.0     0.147089     0.488764     0.187515  Biso 1.000000     H
    H   1.0     0.129983     0.481478     0.014845  Biso 1.000000     H
    H   1.0     0.212895     0.178759     0.344859  Biso 1.000000     H
    H   1.0     0.214706     0.186509     0.521912  Biso 1.000000     H
    H   1.0     0.087946     0.474548     0.517711  Biso 1.000000     H
    H   1.0     0.072469     0.477696     0.343013  Biso 1.000000     H
    H   1.0     0.219094     0.680671     0.034890  Biso 1.000000     H
    H   1.0     0.409081     0.679865     0.021264  Biso 1.000000     H
    H   1.0     0.173000     0.667885     0.348491  Biso 1.000000     H
    H   1.0     0.561713     0.676674     0.101588  Biso 1.000000     H
    H   1.0     0.516825     0.664156     0.414687  Biso 1.000000     H
    H   1.0     0.326104     0.662528     0.429458  Biso 1.000000     H
    H   1.0     0.853707    -0.005691     0.348646  Biso 1.000000     H
    H   1.0     0.895213     0.189274     0.018099  Biso 1.000000     H
    H   1.0     0.892413     0.000865     0.036325  Biso 1.000000     H
    H   1.0     0.883926     0.351068     0.094905  Biso 1.000000     H
    H   1.0     0.848060     0.345643     0.407034  Biso 1.000000     H
    H   1.0     0.845377     0.157003     0.425427  Biso 1.000000     H
    H   1.0     0.884255     0.831680     0.948658  Biso 1.000000     H
    H   1.0     0.876594     0.838100     0.771901  Biso 1.000000     H
    H   1.0     0.852909     0.511224     0.812452  Biso 1.000000     H
    H   1.0     0.870016     0.518509     0.985123  Biso 1.000000     H
    H   1.0     0.787103     0.821228     0.655109  Biso 1.000000     H
    H   1.0     0.785293     0.813478     0.478056  Biso 1.000000     H
    H   1.0     0.912052     0.525439     0.482257  Biso 1.000000     H
    H   1.0     0.927529     0.522291     0.656955  Biso 1.000000     H
    C   1.0     0.930051     0.327080     0.798812  Biso 1.000000     C
    C   1.0     0.815207     0.325757     0.806570  Biso 1.000000     C
    C   1.0     0.747744     0.322186     0.899784  Biso 1.000000     C
    C   1.0     0.642492     0.322707     0.907046  Biso 1.000000     C
    C   1.0     0.598740     0.326332     0.821984  Biso 1.000000     C
    C   1.0     0.666505     0.330066     0.727437  Biso 1.000000     C
    C   1.0     0.774379     0.329668     0.722471  Biso 1.000000     C
    C   1.0     0.490861     0.326110     0.827364  Biso 1.000000     C
    C   1.0     0.450117     0.328911     0.743475  Biso 1.000000     C
    C   1.0     0.517222     0.333093     0.650108  Biso 1.000000     C
    C   1.0     0.622595     0.333837     0.642406  Biso 1.000000     C
    C   1.0     0.335197     0.327373     0.751717  Biso 1.000000     C
    C   1.0     0.130245     0.127089     0.796044  Biso 1.000000     C
    C   1.0     0.128392     0.013290     0.805585  Biso 1.000000     C
    C   1.0     0.138101     0.962117     0.722989  Biso 1.000000     C
    C   1.0     0.137565     0.854960     0.730360  Biso 1.000000     C
    C   1.0     0.127085     0.798983     0.825546  Biso 1.000000     C
    C   1.0     0.115873     0.853172     0.909400  Biso 1.000000     C
    C   1.0     0.116586     0.957463     0.899578  Biso 1.000000     C
    C   1.0     0.125680     0.691792     0.833018  Biso 1.000000     C
    C   1.0     0.134240     0.640596     0.750577  Biso 1.000000     C
    C   1.0     0.144963     0.696343     0.656624  Biso 1.000000     C
    C   1.0     0.146456     0.800552     0.646882  Biso 1.000000     C
    C   1.0     0.131773     0.526914     0.759637  Biso 1.000000     C
    C   1.0     0.122237     0.237179     0.085394  Biso 1.000000     C
    C   1.0     0.128223     0.234632     0.183438  Biso 1.000000     C
    C   1.0     0.136108     0.325663     0.223847  Biso 1.000000     C
    C   1.0     0.141522     0.327437     0.328001  Biso 1.000000     C
    C   1.0     0.138077     0.415919     0.161589  Biso 1.000000     C
    C   1.0     0.130202     0.412736     0.064750  Biso 1.000000     C
    C   1.0     0.182099     0.245290     0.380389  Biso 1.000000     C
    C   1.0     0.184851     0.249172     0.478511  Biso 1.000000     C
    C   1.0     0.113017     0.410363     0.476181  Biso 1.000000     C
    C   1.0     0.106419     0.411780     0.378398  Biso 1.000000     C
    C   1.0     0.069949     0.672897     0.201155  Biso 1.000000     C
    C   1.0     0.184792     0.674238     0.193397  Biso 1.000000     C
    C   1.0     0.252256     0.677800     0.100184  Biso 1.000000     C
    C   1.0     0.357507     0.677281     0.092921  Biso 1.000000     C
    C   1.0     0.401259     0.673654     0.177984  Biso 1.000000     C
    C   1.0     0.333495     0.669923     0.272530  Biso 1.000000     C
    C   1.0     0.225620     0.670320     0.277497  Biso 1.000000     C
    C   1.0     0.509139     0.673878     0.172602  Biso 1.000000     C
    C   1.0     0.549883     0.671073     0.256492  Biso 1.000000     C
    C   1.0     0.482778     0.666896     0.349859  Biso 1.000000     C
    C   1.0     0.377405     0.666151     0.357561  Biso 1.000000     C
    C   1.0     0.664803     0.672618     0.248250  Biso 1.000000     C
    C   1.0     0.869755     0.872898     0.203923  Biso 1.000000     C
    C   1.0     0.871608     0.986698     0.194382  Biso 1.000000     C
    C   1.0     0.861896     0.037871     0.276978  Biso 1.000000     C
    C   1.0     0.862434     0.145027     0.269607  Biso 1.000000     C
    C   1.0     0.872913     0.201005     0.174421  Biso 1.000000     C
    C   1.0     0.884128     0.146816     0.090567  Biso 1.000000     C
    C   1.0     0.883414     0.042524     0.100389  Biso 1.000000     C
    C   1.0     0.874320     0.308196     0.166949  Biso 1.000000     C
    C   1.0     0.865759     0.359392     0.249390  Biso 1.000000     C
    C   1.0     0.855034     0.303644     0.343343  Biso 1.000000     C
    C   1.0     0.853539     0.199436     0.353085  Biso 1.000000     C
    C   1.0     0.868220     0.473074     0.240330  Biso 1.000000     C
    C   1.0     0.877763     0.762808     0.914573  Biso 1.000000     C
    C   1.0     0.871777     0.765355     0.816529  Biso 1.000000     C
    C   1.0     0.863890     0.674324     0.776120  Biso 1.000000     C
    C   1.0     0.858476     0.672550     0.671967  Biso 1.000000     C
    C   1.0     0.861921     0.584069     0.838378  Biso 1.000000     C
    C   1.0     0.869797     0.587251     0.935218  Biso 1.000000     C
    C   1.0     0.817899     0.754697     0.619579  Biso 1.000000     C
    C   1.0     0.815148     0.750816     0.521457  Biso 1.000000     C
    C   1.0     0.886981     0.589624     0.523786  Biso 1.000000     C
    C   1.0     0.893579     0.588207     0.621569  Biso 1.000000     C
    N   1.0     0.122312     0.324744     0.026776  Biso 1.000000     N
    N   1.0     0.150619     0.330327     0.526178  Biso 1.000000     N
    N   1.0     0.877688     0.675243     0.973192  Biso 1.000000     N
    N   1.0     0.849379     0.669660     0.473789  Biso 1.000000     N
    O   1.0     0.963283     0.319548     0.878743  Biso 1.000000     O
    O   1.0    -0.014330     0.337854     0.712744  Biso 1.000000     O
    O   1.0     0.279688     0.329156     0.837099  Biso 1.000000     O
    O   1.0     0.302006     0.324463     0.672654  Biso 1.000000     O
    O   1.0     0.137750     0.173251     0.710262  Biso 1.000000     O
    O   1.0     0.124220     0.168955     0.874795  Biso 1.000000     O
    O   1.0     0.145333     0.485224     0.680021  Biso 1.000000     O
    O   1.0     0.115641     0.480547     0.845797  Biso 1.000000     O
    O   1.0     0.036716     0.680443     0.121224  Biso 1.000000     O
    O   1.0     0.000000     0.662137     0.287223  Biso 1.000000     O
    O   1.0     0.720312     0.670832     0.162868  Biso 1.000000     O
    O   1.0     0.697994     0.675526     0.327312  Biso 1.000000     O
    O   1.0     0.862250     0.826736     0.289705  Biso 1.000000     O
    O   1.0     0.875781     0.831033     0.125172  Biso 1.000000     O
    O   1.0     0.854662     0.514764     0.319947  Biso 1.000000     O
    O   1.0     0.884361     0.519441     0.154170  Biso 1.000000     O
   Zn   1.0     0.146646     0.328991     0.674580  Biso 1.000000    Zn
   Zn   1.0     0.120482     0.324492     0.879805  Biso 1.000000    Zn
   Zn   1.0     0.853353     0.670996     0.325387  Biso 1.000000    Zn
   Zn   1.0     0.879517     0.675495     0.120163  Biso 1.000000    Zn
