#======================================================================

# CRYSTAL DATA

#----------------------------------------------------------------------

data_VESTA_phase_1


_pd_phase_name                         MOF
_cell_length_a                         15.37100
_cell_length_b                         15.34500
_cell_length_c                         22.38300
_cell_angle_alpha                      87.39400
_cell_angle_beta                       84.31500
_cell_angle_gamma                      81.03100
_symmetry_space_group_name_H-M         "P 1"
_symmetry_Int_Tables_number            1

loop_
_symmetry_equiv_pos_as_xyz
   "x, y, z"

loop_
   _atom_site_label
   _atom_site_occupancy
   _atom_site_fract_x
   _atom_site_fract_y
   _atom_site_fract_z
   _atom_site_adp_type
   _atom_site_B_iso_or_equiv
   _atom_site_type_symbol
    H   1.0     0.758168     0.774800     0.910402  Biso 1.000000     H
    H   1.0     0.760470     0.774877     0.022368  Biso 1.000000     H
    H   1.0     0.000000     0.592399     0.000000  Biso 1.000000     H
    H   1.0     0.992551     0.599150     0.892094  Biso 1.000000     H
    H   1.0     0.888435     0.466608     0.196379  Biso 1.000000     H
    H   1.0     0.892676     0.469371     0.307858  Biso 1.000000     H
    H   1.0     0.903257     0.907262     0.287560  Biso 1.000000     H
    H   1.0     0.896350     0.905128     0.175725  Biso 1.000000     H
    H   1.0     0.785872     0.792015     0.473603  Biso 1.000000     H
    H   1.0     0.788606     0.792769     0.585547  Biso 1.000000     H
    H   1.0     0.012854     0.603151     0.580733  Biso 1.000000     H
    H   1.0     0.019437     0.594356     0.469004  Biso 1.000000     H
    H   1.0     0.142013     0.728240     0.832274  Biso 1.000000     H
    H   1.0     0.302534     0.734109     0.833630  Biso 1.000000     H
    H   1.0     0.344722     0.665540     0.647232  Biso 1.000000     H
    H   1.0     0.183543     0.664140     0.646082  Biso 1.000000     H
    H   1.0     0.437997     0.652273     0.832806  Biso 1.000000     H
    H   1.0     0.598817     0.657339     0.833600  Biso 1.000000     H
    H   1.0     0.610791     0.753604     0.650725  Biso 1.000000     H
    H   1.0     0.449220     0.753281     0.649761  Biso 1.000000     H
    H   1.0     0.812595    -0.019839     0.834938  Biso 1.000000     H
    H   1.0     0.812542     0.141950     0.835054  Biso 1.000000     H
    H   1.0     0.935072     0.132947     0.652825  Biso 1.000000     H
    H   1.0     0.929611     0.972753     0.652922  Biso 1.000000     H
    H   1.0     0.888605     0.249219     0.839498  Biso 1.000000     H
    H   1.0     0.894855     0.410275     0.839062  Biso 1.000000     H
    H   1.0     0.874399     0.428308     0.649432  Biso 1.000000     H
    H   1.0     0.864895     0.267969     0.648857  Biso 1.000000     H
    H   1.0     0.241836     0.225171     0.089591  Biso 1.000000     H
    H   1.0     0.239523     0.225119     0.977626  Biso 1.000000     H
    H   1.0    -0.005194     0.407607    -0.002294  Biso 1.000000     H
    H   1.0     0.007460     0.400838     0.107918  Biso 1.000000     H
    H   1.0     0.111543     0.533402     0.803624  Biso 1.000000     H
    H   1.0     0.107274     0.530640     0.692147  Biso 1.000000     H
    H   1.0     0.096742     0.092743     0.712445  Biso 1.000000     H
    H   1.0     0.103626     0.094884     0.824282  Biso 1.000000     H
    H   1.0     0.214119     0.207982     0.526388  Biso 1.000000     H
    H   1.0     0.211358     0.207219     0.414450  Biso 1.000000     H
    H   1.0     0.987123     0.396855     0.419273  Biso 1.000000     H
    H   1.0     0.980555     0.405652     0.531003  Biso 1.000000     H
    H   1.0     0.857958     0.271746     0.167717  Biso 1.000000     H
    H   1.0     0.697433     0.265893     0.166366  Biso 1.000000     H
    H   1.0     0.655260     0.334472     0.352761  Biso 1.000000     H
    H   1.0     0.816440     0.335864     0.353908  Biso 1.000000     H
    H   1.0     0.561968     0.347731     0.167192  Biso 1.000000     H
    H   1.0     0.401150     0.342652     0.166401  Biso 1.000000     H
    H   1.0     0.389191     0.246381     0.349277  Biso 1.000000     H
    H   1.0     0.550761     0.246723     0.350238  Biso 1.000000     H
    H   1.0     0.187373     0.000000     0.165066  Biso 1.000000     H
    H   1.0     0.187407     0.858036     0.164937  Biso 1.000000     H
    H   1.0     0.064877     0.867026     0.347170  Biso 1.000000     H
    H   1.0     0.070366     0.027213     0.347085  Biso 1.000000     H
    H   1.0     0.111381     0.750748     0.160491  Biso 1.000000     H
    H   1.0     0.105133     0.589692     0.160926  Biso 1.000000     H
    H   1.0     0.125533     0.571678     0.350566  Biso 1.000000     H
    H   1.0     0.135040     0.732016     0.351137  Biso 1.000000     H
    C   1.0     0.811184     0.735191     0.932964  Biso 1.000000     C
    C   1.0     0.812758     0.734924     0.994906  Biso 1.000000     C
    C   1.0     0.883247     0.683500     0.020736  Biso 1.000000     C
    C   1.0     0.949167     0.633391     0.984024  Biso 1.000000     C
    C   1.0     0.942420     0.636977     0.922433  Biso 1.000000     C
    C   1.0     0.889200     0.766952     0.110089  Biso 1.000000     C
    C   1.0     0.892150     0.766348     0.175833  Biso 1.000000     C
    C   1.0     0.891793     0.686736     0.210244  Biso 1.000000     C
    C   1.0     0.890093     0.605522     0.183030  Biso 1.000000     C
    C   1.0     0.890357     0.601631     0.117194  Biso 1.000000     C
    C   1.0     0.889523     0.528399     0.218057  Biso 1.000000     C
    C   1.0     0.891306     0.529945     0.280545  Biso 1.000000     C
    C   1.0     0.894773     0.608448     0.308124  Biso 1.000000     C
    C   1.0     0.894921     0.688088     0.273580  Biso 1.000000     C
    C   1.0     0.899308     0.768720     0.300471  Biso 1.000000     C
    C   1.0     0.899318     0.846269     0.265689  Biso 1.000000     C
    C   1.0     0.895705     0.845011     0.203459  Biso 1.000000     C
    C   1.0     0.905014     0.771397     0.365764  Biso 1.000000     C
    C   1.0     0.898311     0.607591     0.373884  Biso 1.000000     C
    C   1.0     0.902741     0.692869     0.463032  Biso 1.000000     C
    C   1.0     0.837131     0.749397     0.495792  Biso 1.000000     C
    C   1.0     0.838556     0.750478     0.557653  Biso 1.000000     C
    C   1.0     0.964163     0.644176     0.555231  Biso 1.000000     C
    C   1.0     0.967498     0.639405     0.493092  Biso 1.000000     C
    C   1.0     0.055812     0.692647     0.738852  Biso 1.000000     C
    C   1.0     0.152737     0.695563     0.739234  Biso 1.000000     C
    C   1.0     0.187269     0.714546     0.792038  Biso 1.000000     C
    C   1.0     0.277220     0.717038     0.792581  Biso 1.000000     C
    C   1.0     0.335828     0.700073     0.740524  Biso 1.000000     C
    C   1.0     0.300519     0.680757     0.687811  Biso 1.000000     C
    C   1.0     0.210458     0.678897     0.687063  Biso 1.000000     C
    C   1.0     0.431450     0.702511     0.741205  Biso 1.000000     C
    C   1.0     0.475031     0.676351     0.793015  Biso 1.000000     C
    C   1.0     0.565080     0.678348     0.793640  Biso 1.000000     C
    C   1.0     0.614725     0.705950     0.742287  Biso 1.000000     C
    C   1.0     0.571979     0.732038     0.690460  Biso 1.000000     C
    C   1.0     0.481777     0.730755     0.690019  Biso 1.000000     C
    C   1.0     0.712224     0.705851     0.742573  Biso 1.000000     C
    C   1.0     0.870589     0.868715     0.743951  Biso 1.000000     C
    C   1.0     0.870517     0.966468     0.743845  Biso 1.000000     C
    C   1.0     0.838582     0.014829     0.795207  Biso 1.000000     C
    C   1.0     0.839754     0.105271     0.795138  Biso 1.000000     C
    C   1.0     0.873740     0.150315     0.743954  Biso 1.000000     C
    C   1.0     0.905881     0.100985     0.692657  Biso 1.000000     C
    C   1.0     0.904019     0.010678     0.692546  Biso 1.000000     C
    C   1.0     0.876809     0.246024     0.744134  Biso 1.000000     C
    C   1.0     0.884411     0.288085     0.797604  Biso 1.000000     C
    C   1.0     0.888918     0.377918     0.797642  Biso 1.000000     C
    C   1.0     0.886552     0.428805     0.744099  Biso 1.000000     C
    C   1.0     0.878054     0.387867     0.690657  Biso 1.000000     C
    C   1.0     0.873267     0.298163     0.690657  Biso 1.000000     C
    C   1.0     0.892797     0.525327     0.743672  Biso 1.000000     C
    C   1.0     0.188818     0.264785     0.067035  Biso 1.000000     C
    C   1.0     0.187238     0.265070     0.005092  Biso 1.000000     C
    C   1.0     0.116752     0.316503     0.979264  Biso 1.000000     C
    C   1.0     0.050837     0.366605     0.015982  Biso 1.000000     C
    C   1.0     0.057583     0.363010     0.077575  Biso 1.000000     C
    C   1.0     0.110775     0.233051     0.889918  Biso 1.000000     C
    C   1.0     0.107861     0.233661     0.824171  Biso 1.000000     C
    C   1.0     0.108201     0.313273     0.789758  Biso 1.000000     C
    C   1.0     0.109936     0.394479     0.816975  Biso 1.000000     C
    C   1.0     0.109652     0.398376     0.882813  Biso 1.000000     C
    C   1.0     0.110452     0.471608     0.781949  Biso 1.000000     C
    C   1.0     0.108664     0.470064     0.719460  Biso 1.000000     C
    C   1.0     0.105227     0.391556     0.691878  Biso 1.000000     C
    C   1.0     0.105071     0.311917     0.726423  Biso 1.000000     C
    C   1.0     0.100720     0.231277     0.699531  Biso 1.000000     C
    C   1.0     0.100668     0.153738     0.734319  Biso 1.000000     C
    C   1.0     0.104287     0.155000     0.796548  Biso 1.000000     C
    C   1.0     0.094981     0.228608     0.634241  Biso 1.000000     C
    C   1.0     0.101687     0.392409     0.626118  Biso 1.000000     C
    C   1.0     0.097247     0.307132     0.536968  Biso 1.000000     C
    C   1.0     0.162854     0.250601     0.504206  Biso 1.000000     C
    C   1.0     0.161413     0.249513     0.442346  Biso 1.000000     C
    C   1.0     0.035814     0.355825     0.444773  Biso 1.000000     C
    C   1.0     0.032488     0.360601     0.506912  Biso 1.000000     C
    C   1.0     0.944167     0.307343     0.261133  Biso 1.000000     C
    C   1.0     0.847239     0.304427     0.260754  Biso 1.000000     C
    C   1.0     0.812703     0.285444     0.207953  Biso 1.000000     C
    C   1.0     0.722749     0.282965     0.207413  Biso 1.000000     C
    C   1.0     0.664145     0.299938     0.259471  Biso 1.000000     C
    C   1.0     0.699462     0.319252     0.312182  Biso 1.000000     C
    C   1.0     0.789525     0.321103     0.312928  Biso 1.000000     C
    C   1.0     0.568525     0.297489     0.258792  Biso 1.000000     C
    C   1.0     0.524939     0.323648     0.206984  Biso 1.000000     C
    C   1.0     0.434891     0.321649     0.206360  Biso 1.000000     C
    C   1.0     0.385251     0.294053     0.257717  Biso 1.000000     C
    C   1.0     0.428000     0.267955     0.309542  Biso 1.000000     C
    C   1.0     0.518201     0.269244     0.309980  Biso 1.000000     C
    C   1.0     0.287760     0.294111     0.257430  Biso 1.000000     C
    C   1.0     0.129429     0.131248     0.256061  Biso 1.000000     C
    C   1.0     0.129429     0.033510     0.256156  Biso 1.000000     C
    C   1.0     0.161383     0.985151     0.204795  Biso 1.000000     C
    C   1.0     0.160204     0.894712     0.204856  Biso 1.000000     C
    C   1.0     0.126227     0.849662     0.256041  Biso 1.000000     C
    C   1.0     0.094082     0.898985     0.307342  Biso 1.000000     C
    C   1.0     0.095945     0.989291     0.307457  Biso 1.000000     C
    C   1.0     0.123134     0.753958     0.255856  Biso 1.000000     C
    C   1.0     0.115565     0.711882     0.202384  Biso 1.000000     C
    C   1.0     0.111061     0.622048     0.202348  Biso 1.000000     C
    C   1.0     0.113421     0.571169     0.255896  Biso 1.000000     C
    C   1.0     0.121902     0.612115     0.309339  Biso 1.000000     C
    C   1.0     0.126674     0.701822     0.309336  Biso 1.000000     C
    C   1.0     0.107135     0.474652     0.256334  Biso 1.000000     C
    N   1.0     0.874899     0.687194     0.897228  Biso 1.000000     N
    N   1.0     0.887518     0.683669     0.084644  Biso 1.000000     N
    N   1.0     0.902351     0.690255     0.398949  Biso 1.000000     N
    N   1.0     0.900848     0.698830     0.586960  Biso 1.000000     N
    N   1.0     0.125105     0.312785     0.102772  Biso 1.000000     N
    N   1.0     0.112500     0.316329     0.915355  Biso 1.000000     N
    N   1.0     0.097660     0.309743     0.601050  Biso 1.000000     N
    N   1.0     0.099121     0.301166     0.413042  Biso 1.000000     N
    O   1.0     0.888965     0.833748     0.077980  Biso 1.000000     O
    O   1.0     0.892354     0.532775     0.090896  Biso 1.000000     O
    O   1.0     0.912018     0.838688     0.391217  Biso 1.000000     O
    O   1.0     0.896685     0.541017     0.406212  Biso 1.000000     O
    O   1.0     0.888552     0.566667     0.693118  Biso 1.000000     O
    O   1.0     0.902207     0.558562     0.793353  Biso 1.000000     O
    O   1.0     0.848478     0.830788     0.793748  Biso 1.000000     O
    O   1.0     0.893779     0.831033     0.694018  Biso 1.000000     O
    O   1.0     0.028087     0.678011     0.688945  Biso 1.000000     O
    O   1.0     0.000000     0.703474     0.788801  Biso 1.000000     O
    O   1.0     0.755243     0.722485     0.692820  Biso 1.000000     O
    O   1.0     0.744910     0.688095     0.792742  Biso 1.000000     O
    O   1.0     0.111039     0.166248     0.922023  Biso 1.000000     O
    O   1.0     0.107669     0.467230     0.909110  Biso 1.000000     O
    O   1.0     0.087996     0.161311     0.608789  Biso 1.000000     O
    O   1.0     0.103325     0.458982     0.593791  Biso 1.000000     O
    O   1.0     0.111457     0.433310     0.306885  Biso 1.000000     O
    O   1.0     0.097701     0.441403     0.206663  Biso 1.000000     O
    O   1.0     0.151516     0.169168     0.206255  Biso 1.000000     O
    O   1.0     0.106175     0.168949     0.305980  Biso 1.000000     O
    O   1.0     0.971898     0.321985     0.311036  Biso 1.000000     O
    O   1.0    -0.008498     0.296468     0.211191  Biso 1.000000     O
    O   1.0     0.244741     0.277493     0.307186  Biso 1.000000     O
    O   1.0     0.255058     0.311906     0.207270  Biso 1.000000     O
   Zn   1.0     0.892842     0.699964     0.679431  Biso 1.000000    Zn
   Zn   1.0     0.874350     0.694970     0.804944  Biso 1.000000    Zn
   Zn   1.0     0.107141     0.300021     0.320573  Biso 1.000000    Zn
   Zn   1.0     0.125638     0.304959     0.195059  Biso 1.000000    Zn
