#======================================================================

# CRYSTAL DATA

#----------------------------------------------------------------------

data_VESTA_phase_1


_pd_phase_name                         MOF
_cell_length_a                         13.16700
_cell_length_b                         13.25800
_cell_length_c                         22.40700
_cell_angle_alpha                      89.98600
_cell_angle_beta                       89.98100
_cell_angle_gamma                      102.49300
_symmetry_space_group_name_H-M         "P 1"
_symmetry_Int_Tables_number            1

loop_
_symmetry_equiv_pos_as_xyz
   "x, y, z"

loop_
   _atom_site_label
   _atom_site_occupancy
   _atom_site_fract_x
   _atom_site_fract_y
   _atom_site_fract_z
   _atom_site_adp_type
   _atom_site_B_iso_or_equiv
   _atom_site_type_symbol
    H   1.0     0.104266     0.977268     0.733720  Biso 1.000000     H
    H   1.0     0.098633     0.969256     0.622515  Biso 1.000000     H
    H   1.0     0.336797     0.250257     0.619850  Biso 1.000000     H
    H   1.0     0.332103     0.247769     0.732000  Biso 1.000000     H
    H   1.0     0.480281     0.108639     0.451392  Biso 1.000000     H
    H   1.0     0.487645     0.118886     0.339450  Biso 1.000000     H
    H   1.0     0.977835     0.131976     0.332358  Biso 1.000000     H
    H   1.0     0.971946     0.125211     0.443744  Biso 1.000000     H
    H   1.0     0.366459     0.272084     0.166153  Biso 1.000000     H
    H   1.0     0.370137     0.272984     0.054328  Biso 1.000000     H
    H   1.0     0.132854     0.010565     0.045571  Biso 1.000000     H
    H   1.0     0.120496     0.997603     0.156420  Biso 1.000000     H
    H   1.0     0.236279     0.432929     0.778177  Biso 1.000000     H
    H   1.0     0.227416     0.617629     0.764640  Biso 1.000000     H
    H   1.0     0.270289     0.476544     0.967299  Biso 1.000000     H
    H   1.0     0.224735     0.789818     0.809365  Biso 1.000000     H
    H   1.0     0.263296     0.834451     0.998393  Biso 1.000000     H
    H   1.0     0.276217     0.650901     0.011508  Biso 1.000000     H
    H   1.0     0.903344     0.124247     0.814854  Biso 1.000000     H
    H   1.0     0.752511     0.151723     0.016962  Biso 1.000000     H
    H   1.0     0.938193     0.138352     0.000000  Biso 1.000000     H
    H   1.0     0.731794     0.129404     0.768545  Biso 1.000000     H
    H   1.0     0.544909     0.135659     0.780532  Biso 1.000000     H
    H   1.0     0.580768     0.155992     0.970731  Biso 1.000000     H
    H   1.0     0.895753     0.022616     0.233576  Biso 1.000000     H
    H   1.0     0.901279     0.030554     0.122357  Biso 1.000000     H
    H   1.0     0.663178     0.749508     0.119971  Biso 1.000000     H
    H   1.0     0.667981     0.752066     0.232121  Biso 1.000000     H
    H   1.0     0.519628     0.891240     0.951493  Biso 1.000000     H
    H   1.0     0.512232     0.881075     0.839556  Biso 1.000000     H
    H   1.0     0.022026     0.867901     0.832215  Biso 1.000000     H
    H   1.0     0.027952     0.874627     0.943593  Biso 1.000000     H
    H   1.0     0.633396     0.727827     0.666238  Biso 1.000000     H
    H   1.0     0.629713     0.726890     0.554416  Biso 1.000000     H
    H   1.0     0.866929     0.989365     0.545469  Biso 1.000000     H
    H   1.0     0.879293     0.002360     0.656304  Biso 1.000000     H
    H   1.0     0.763825     0.567173     0.278170  Biso 1.000000     H
    H   1.0     0.772663     0.382489     0.264591  Biso 1.000000     H
    H   1.0     0.729667     0.523266     0.467292  Biso 1.000000     H
    H   1.0     0.775298     0.210222     0.309283  Biso 1.000000     H
    H   1.0     0.736585     0.165310     0.498312  Biso 1.000000     H
    H   1.0     0.723652     0.348849     0.511445  Biso 1.000000     H
    H   1.0     0.096760     0.875727     0.314856  Biso 1.000000     H
    H   1.0     0.247290     0.848073     0.516954  Biso 1.000000     H
    H   1.0     0.061646     0.861478     0.504925  Biso 1.000000     H
    H   1.0     0.268373     0.870579     0.268554  Biso 1.000000     H
    H   1.0     0.455237     0.864317     0.280552  Biso 1.000000     H
    H   1.0     0.419112     0.843844     0.470752  Biso 1.000000     H
    C   1.0     0.154650     0.036330     0.706992  Biso 1.000000     C
    C   1.0     0.151706     0.032057     0.644957  Biso 1.000000     C
    C   1.0     0.217881     0.109642     0.612984  Biso 1.000000     C
    C   1.0     0.284258     0.188887     0.643729  Biso 1.000000     C
    C   1.0     0.282462     0.187674     0.705604  Biso 1.000000     C
    C   1.0     0.125399     0.113043     0.518619  Biso 1.000000     C
    C   1.0     0.132599     0.120493     0.452859  Biso 1.000000     C
    C   1.0     0.227954     0.120658     0.423439  Biso 1.000000     C
    C   1.0     0.318838     0.114030     0.455542  Biso 1.000000     C
    C   1.0     0.316208     0.106420     0.521214  Biso 1.000000     C
    C   1.0     0.411519     0.113868     0.425608  Biso 1.000000     C
    C   1.0     0.415677     0.119699     0.363215  Biso 1.000000     C
    C   1.0     0.327066     0.125014     0.330540  Biso 1.000000     C
    C   1.0     0.231998     0.125633     0.359924  Biso 1.000000     C
    C   1.0     0.140411     0.129573     0.327610  Biso 1.000000     C
    C   1.0     0.048076     0.130451     0.357598  Biso 1.000000     C
    C   1.0     0.044388     0.126298     0.420126  Biso 1.000000     C
    C   1.0     0.141481     0.131246     0.261710  Biso 1.000000     C
    C   1.0     0.333319     0.128625     0.264772  Biso 1.000000     C
    C   1.0     0.242887     0.134496     0.169837  Biso 1.000000     C
    C   1.0     0.313663     0.212922     0.140954  Biso 1.000000     C
    C   1.0     0.316047     0.213649     0.078963  Biso 1.000000     C
    C   1.0     0.183681     0.066551     0.073864  Biso 1.000000     C
    C   1.0     0.176889     0.059919     0.135724  Biso 1.000000     C
    C   1.0     0.254689     0.332261     0.881179  Biso 1.000000     C
    C   1.0     0.254056     0.444688     0.873895  Biso 1.000000     C
    C   1.0     0.242457     0.485090     0.816163  Biso 1.000000     C
    C   1.0     0.237461     0.586971     0.808946  Biso 1.000000     C
    C   1.0     0.243999     0.654079     0.858926  Biso 1.000000     C
    C   1.0     0.257702     0.613967     0.917301  Biso 1.000000     C
    C   1.0     0.261963     0.508714     0.923243  Biso 1.000000     C
    C   1.0     0.235876     0.758378     0.853267  Biso 1.000000     C
    C   1.0     0.241700     0.821792     0.902840  Biso 1.000000     C
    C   1.0     0.257593     0.782493     0.960331  Biso 1.000000     C
    C   1.0     0.265047     0.681245     0.967257  Biso 1.000000     C
    C   1.0     0.232018     0.931928     0.896312  Biso 1.000000     C
    C   1.0     0.040620     0.119671     0.902235  Biso 1.000000     C
    C   1.0     0.929940     0.129237     0.908835  Biso 1.000000     C
    C   1.0     0.868878     0.129816     0.858648  Biso 1.000000     C
    C   1.0     0.763780     0.137191     0.863575  Biso 1.000000     C
    C   1.0     0.720758     0.144907     0.921942  Biso 1.000000     C
    C   1.0     0.785527     0.145337     0.972761  Biso 1.000000     C
    C   1.0     0.887577     0.137788     0.966431  Biso 1.000000     C
    C   1.0     0.698797     0.135246     0.812792  Biso 1.000000     C
    C   1.0     0.595876     0.139443     0.819086  Biso 1.000000     C
    C   1.0     0.553346     0.147467     0.876668  Biso 1.000000     C
    C   1.0     0.615173     0.150529     0.926912  Biso 1.000000     C
    C   1.0     0.440453     0.149417     0.883180  Biso 1.000000     C
    C   1.0     0.845357     0.963529     0.206905  Biso 1.000000     C
    C   1.0     0.848241     0.967764     0.144868  Biso 1.000000     C
    C   1.0     0.782053     0.890153     0.112970  Biso 1.000000     C
    C   1.0     0.715723     0.810906     0.143789  Biso 1.000000     C
    C   1.0     0.717578     0.812156     0.205663  Biso 1.000000     C
    C   1.0     0.874513     0.886809     0.018569  Biso 1.000000     C
    C   1.0     0.867303     0.879351     0.952793  Biso 1.000000     C
    C   1.0     0.771939     0.879199     0.923417  Biso 1.000000     C
    C   1.0     0.681062     0.885816     0.955561  Biso 1.000000     C
    C   1.0     0.683706     0.893430     0.021248  Biso 1.000000     C
    C   1.0     0.588380     0.886016     0.925672  Biso 1.000000     C
    C   1.0     0.584204     0.880223     0.863281  Biso 1.000000     C
    C   1.0     0.672805     0.874915     0.830560  Biso 1.000000     C
    C   1.0     0.767874     0.874257     0.859903  Biso 1.000000     C
    C   1.0     0.859454     0.870330     0.827547  Biso 1.000000     C
    C   1.0     0.951793     0.869426     0.857489  Biso 1.000000     C
    C   1.0     0.955504     0.873559     0.920014  Biso 1.000000     C
    C   1.0     0.858373     0.868679     0.761650  Biso 1.000000     C
    C   1.0     0.666556     0.871331     0.764791  Biso 1.000000     C
    C   1.0     0.756950     0.865430     0.669822  Biso 1.000000     C
    C   1.0     0.686181     0.786988     0.640995  Biso 1.000000     C
    C   1.0     0.683794     0.786244     0.579004  Biso 1.000000     C
    C   1.0     0.816120     0.933371     0.573801  Biso 1.000000     C
    C   1.0     0.822917     0.940021     0.635656  Biso 1.000000     C
    C   1.0     0.745335     0.667683     0.381190  Biso 1.000000     C
    C   1.0     0.745970     0.555268     0.373891  Biso 1.000000     C
    C   1.0     0.757613     0.514953     0.316148  Biso 1.000000     C
    C   1.0     0.762593     0.413079     0.308906  Biso 1.000000     C
    C   1.0     0.756004     0.345889     0.358874  Biso 1.000000     C
    C   1.0     0.742270     0.385919     0.417260  Biso 1.000000     C
    C   1.0     0.738024     0.491166     0.423227  Biso 1.000000     C
    C   1.0     0.764120     0.241595     0.353193  Biso 1.000000     C
    C   1.0     0.758268     0.178115     0.402759  Biso 1.000000     C
    C   1.0     0.742321     0.217327     0.460259  Biso 1.000000     C
    C   1.0     0.734867     0.318565     0.467205  Biso 1.000000     C
    C   1.0     0.767972     0.067993     0.396229  Biso 1.000000     C
    C   1.0     0.959362     0.880256     0.402242  Biso 1.000000     C
    C   1.0     0.070031     0.870672     0.408838  Biso 1.000000     C
    C   1.0     0.131158     0.870110     0.358652  Biso 1.000000     C
    C   1.0     0.236249     0.862727     0.363585  Biso 1.000000     C
    C   1.0     0.279188     0.854957     0.421954  Biso 1.000000     C
    C   1.0     0.214348     0.854494     0.472770  Biso 1.000000     C
    C   1.0     0.112310     0.862057     0.466435  Biso 1.000000     C
    C   1.0     0.301304     0.864704     0.312804  Biso 1.000000     C
    C   1.0     0.404215     0.860504     0.319104  Biso 1.000000     C
    C   1.0     0.446669     0.852447     0.376690  Biso 1.000000     C
    C   1.0     0.384768     0.849335     0.426930  Biso 1.000000     C
    C   1.0     0.559563     0.850525     0.383199  Biso 1.000000     C
    N   1.0     0.218855     0.112670     0.736794  Biso 1.000000     N
    N   1.0     0.219334     0.109704     0.548912  Biso 1.000000     N
    N   1.0     0.238669     0.130947     0.233955  Biso 1.000000     N
    N   1.0     0.252243     0.142024     0.045811  Biso 1.000000     N
    N   1.0     0.781194     0.887192     0.236780  Biso 1.000000     N
    N   1.0     0.780565     0.890070     0.048900  Biso 1.000000     N
    N   1.0     0.761193     0.868985     0.733938  Biso 1.000000     N
    N   1.0     0.747583     0.857874     0.545801  Biso 1.000000     N
    O   1.0     0.044841     0.110963     0.546636  Biso 1.000000     O
    O   1.0     0.391136     0.097836     0.551668  Biso 1.000000     O
    O   1.0     0.064262     0.133329     0.231409  Biso 1.000000     O
    O   1.0     0.413271     0.128721     0.236881  Biso 1.000000     O
    O   1.0     0.409040     0.169166     0.934770  Biso 1.000000     O
    O   1.0     0.384969     0.129303     0.836356  Biso 1.000000     O
    O   1.0     0.074734     0.115740     0.849220  Biso 1.000000     O
    O   1.0     0.091739     0.115768     0.950038  Biso 1.000000     O
    O   1.0     0.248451     0.987704     0.943040  Biso 1.000000     O
    O   1.0     0.207700     0.961412     0.845039  Biso 1.000000     O
    O   1.0     0.254026     0.297575     0.934324  Biso 1.000000     O
    O   1.0     0.254140     0.279825     0.833490  Biso 1.000000     O
    O   1.0     0.955083     0.888971     0.046560  Biso 1.000000     O
    O   1.0     0.608811     0.902091     0.051733  Biso 1.000000     O
    O   1.0     0.935585     0.866588     0.731318  Biso 1.000000     O
    O   1.0     0.586630     0.871253     0.736910  Biso 1.000000     O
    O   1.0     0.590944     0.830768     0.434789  Biso 1.000000     O
    O   1.0     0.615080     0.870651     0.336361  Biso 1.000000     O
    O   1.0     0.925289     0.884207     0.349232  Biso 1.000000     O
    O   1.0     0.908207     0.884150     0.450052  Biso 1.000000     O
    O   1.0     0.751566     0.012196     0.442973  Biso 1.000000     O
    O   1.0     0.792267     0.038543     0.344940  Biso 1.000000     O
    O   1.0     0.745984     0.702331     0.434333  Biso 1.000000     O
    O   1.0     0.745879     0.720153     0.333499  Biso 1.000000     O
   Zn   1.0     0.226886     0.119157     0.828370  Biso 1.000000    Zn
   Zn   1.0     0.253160     0.145539     0.953481  Biso 1.000000    Zn
   Zn   1.0     0.773148     0.880803     0.328365  Biso 1.000000    Zn
   Zn   1.0     0.746809     0.854350     0.453486  Biso 1.000000    Zn
