#======================================================================

# CRYSTAL DATA

#----------------------------------------------------------------------

data_VESTA_phase_1


_pd_phase_name                         MOF
_cell_length_a                         22.48500
_cell_length_b                         22.48800
_cell_length_c                         14.04800
_cell_angle_alpha                      90.07400
_cell_angle_beta                       90.01000
_cell_angle_gamma                      90.04900
_symmetry_space_group_name_H-M         "P 1"
_symmetry_Int_Tables_number            1

loop_
_symmetry_equiv_pos_as_xyz
   "x, y, z"

loop_
   _atom_site_label
   _atom_site_occupancy
   _atom_site_fract_x
   _atom_site_fract_y
   _atom_site_fract_z
   _atom_site_adp_type
   _atom_site_B_iso_or_equiv
   _atom_site_type_symbol
    H   1.0     0.288057     0.273861     0.069081  Biso 1.000000     H
    H   1.0     0.287668     0.774289     0.069383  Biso 1.000000     H
    H   1.0     0.787033     0.274037     0.069683  Biso 1.000000     H
    H   1.0     0.787984     0.774244     0.069239  Biso 1.000000     H
    H   1.0     0.306783     0.390330     0.691039  Biso 1.000000     H
    H   1.0     0.306941     0.890093     0.691120  Biso 1.000000     H
    H   1.0     0.806635     0.389679     0.691125  Biso 1.000000     H
    H   1.0     0.807205     0.890030     0.690958  Biso 1.000000     H
    H   1.0     0.450334     0.383181     0.217238  Biso 1.000000     H
    H   1.0     0.450189     0.883173     0.217590  Biso 1.000000     H
    H   1.0     0.950042     0.382565     0.217383  Biso 1.000000     H
    H   1.0     0.950422     0.883251     0.217505  Biso 1.000000     H
    H   1.0     0.211638     0.226296     0.569030  Biso 1.000000     H
    H   1.0     0.211847     0.725989     0.569654  Biso 1.000000     H
    H   1.0     0.711346     0.226393     0.568775  Biso 1.000000     H
    H   1.0     0.712171     0.725832     0.569365  Biso 1.000000     H
    H   1.0     0.192958     0.109787     0.190771  Biso 1.000000     H
    H   1.0     0.192699     0.609905     0.191078  Biso 1.000000     H
    H   1.0     0.692505     0.109333     0.190795  Biso 1.000000     H
    H   1.0     0.692779     0.610019     0.190708  Biso 1.000000     H
    H   1.0     0.049494     0.117096     0.717174  Biso 1.000000     H
    H   1.0     0.049088     0.617380     0.717362  Biso 1.000000     H
    H   1.0     0.549519     0.116921     0.717400  Biso 1.000000     H
    H   1.0     0.549746     0.616998     0.717360  Biso 1.000000     H
    H   1.0     0.475570     0.037098     0.319679  Biso 1.000000     H
    H   1.0     0.475584     0.538261     0.319292  Biso 1.000000     H
    H   1.0     0.975547     0.038025     0.319188  Biso 1.000000     H
    H   1.0     0.975539     0.538058     0.319529  Biso 1.000000     H
    H   1.0     0.360311     0.056888     0.940801  Biso 1.000000     H
    H   1.0     0.359848     0.557517     0.940787  Biso 1.000000     H
    H   1.0     0.859584     0.057110     0.940861  Biso 1.000000     H
    H   1.0     0.859518     0.556804     0.941169  Biso 1.000000     H
    H   1.0     0.367617     0.200296     0.467395  Biso 1.000000     H
    H   1.0     0.367201     0.701005     0.467375  Biso 1.000000     H
    H   1.0     0.867088     0.200651     0.467469  Biso 1.000000     H
    H   1.0     0.866832     0.700585     0.467585  Biso 1.000000     H
    H   1.0     0.023384     0.462226     0.819491  Biso 1.000000     H
    H   1.0     0.024299     0.962364     0.819583  Biso 1.000000     H
    H   1.0     0.524096     0.463144     0.819701  Biso 1.000000     H
    H   1.0     0.524314     0.961897     0.819399  Biso 1.000000     H
    H   1.0     0.139621     0.443386     0.441083  Biso 1.000000     H
    H   1.0     0.139879     0.942954     0.440954  Biso 1.000000     H
    H   1.0     0.639470     0.443205     0.440756  Biso 1.000000     H
    H   1.0     0.639987     0.942555     0.440809  Biso 1.000000     H
    H   1.0     0.132616     0.300084     0.967148  Biso 1.000000     H
    H   1.0     0.132572     0.799582     0.967141  Biso 1.000000     H
    H   1.0     0.632211     0.300089     0.966897  Biso 1.000000     H
    H   1.0     0.632837     0.799308     0.967039  Biso 1.000000     H
    H   1.0     0.462367     0.023872     0.180361  Biso 1.000000     H
    H   1.0     0.461893     0.524542     0.180371  Biso 1.000000     H
    H   1.0     0.962083     0.024639     0.180125  Biso 1.000000     H
    H   1.0     0.961624     0.524041     0.180751  Biso 1.000000     H
    H   1.0     0.443118     0.139673     0.559121  Biso 1.000000     H
    H   1.0     0.442918     0.640546     0.558951  Biso 1.000000     H
    H   1.0     0.942820     0.140183     0.558965  Biso 1.000000     H
    H   1.0     0.942459     0.640123     0.559292  Biso 1.000000     H
    H   1.0     0.299714     0.132452     0.032729  Biso 1.000000     H
    H   1.0     0.299477     0.633309     0.032533  Biso 1.000000     H
    H   1.0     0.798899     0.132568     0.032790  Biso 1.000000     H
    H   1.0     0.799352     0.632888     0.032656  Biso 1.000000     H
    H   1.0     0.037088     0.475901     0.680397  Biso 1.000000     H
    H   1.0     0.037758     0.975823     0.680570  Biso 1.000000     H
    H   1.0     0.537484     0.476468     0.680398  Biso 1.000000     H
    H   1.0     0.537963     0.975524     0.680501  Biso 1.000000     H
    H   1.0     0.056747     0.360356     0.058963  Biso 1.000000     H
    H   1.0     0.056975     0.860162     0.058912  Biso 1.000000     H
    H   1.0     0.556534     0.360575     0.058742  Biso 1.000000     H
    H   1.0     0.556990     0.859659     0.058686  Biso 1.000000     H
    H   1.0     0.200202     0.367837     0.532738  Biso 1.000000     H
    H   1.0     0.200351     0.867271     0.532523  Biso 1.000000     H
    H   1.0     0.700033     0.367675     0.532566  Biso 1.000000     H
    H   1.0     0.700523     0.866952     0.532384  Biso 1.000000     H
    H   1.0     0.273580     0.288305     0.930466  Biso 1.000000     H
    H   1.0     0.273836     0.788154     0.930628  Biso 1.000000     H
    H   1.0     0.772950     0.288060     0.930798  Biso 1.000000     H
    H   1.0     0.774131     0.788086     0.930493  Biso 1.000000     H
    H   1.0     0.390267     0.307041     0.308626  Biso 1.000000     H
    H   1.0     0.389729     0.807382     0.309118  Biso 1.000000     H
    H   1.0     0.889597     0.306806     0.309010  Biso 1.000000     H
    H   1.0     0.890053     0.807372     0.308955  Biso 1.000000     H
    H   1.0     0.382603     0.450780     0.782839  Biso 1.000000     H
    H   1.0     0.382907     0.950458     0.782797  Biso 1.000000     H
    H   1.0     0.882745     0.449870     0.782869  Biso 1.000000     H
    H   1.0     0.883037     0.950508     0.782670  Biso 1.000000     H
    H   1.0     0.226058     0.211856     0.430598  Biso 1.000000     H
    H   1.0     0.225653     0.712148     0.430763  Biso 1.000000     H
    H   1.0     0.725426     0.211974     0.430073  Biso 1.000000     H
    H   1.0     0.725851     0.712091     0.430536  Biso 1.000000     H
    H   1.0     0.109734     0.193221     0.808714  Biso 1.000000     H
    H   1.0     0.109717     0.693058     0.809185  Biso 1.000000     H
    H   1.0     0.609676     0.193218     0.808710  Biso 1.000000     H
    H   1.0     0.610251     0.692831     0.809079  Biso 1.000000     H
    H   1.0     0.116900     0.049583     0.282128  Biso 1.000000     H
    H   1.0     0.116860     0.549507     0.282602  Biso 1.000000     H
    H   1.0     0.616911     0.048838     0.282696  Biso 1.000000     H
    H   1.0     0.616984     0.549564     0.282233  Biso 1.000000     H
    B   1.0     0.437746     0.062241     0.750028  Biso 1.000000     B
    B   1.0     0.437676     0.564243     0.750096  Biso 1.000000     B
    B   1.0     0.937733     0.062259     0.750018  Biso 1.000000     B
    B   1.0     0.935745     0.562306     0.749949  Biso 1.000000     B
    B   1.0     0.062231     0.437745     0.249988  Biso 1.000000     B
    B   1.0     0.062247     0.937755     0.249998  Biso 1.000000     B
    B   1.0     0.562233     0.437754     0.249997  Biso 1.000000     B
    B   1.0     0.562295     0.935768     0.250071  Biso 1.000000     B
    B   1.0     0.187115     0.187722     0.000089  Biso 1.000000     B
    B   1.0     0.187728     0.687751     0.000000  Biso 1.000000     B
    B   1.0     0.685744     0.187703     0.000064  Biso 1.000000     B
    B   1.0     0.687726     0.687752    -0.000007  Biso 1.000000     B
    B   1.0     0.312251     0.312263     0.500011  Biso 1.000000     B
    B   1.0     0.312278     0.812900     0.499930  Biso 1.000000     B
    B   1.0     0.812258     0.312886     0.499929  Biso 1.000000     B
    B   1.0     0.812256     0.812281     0.500013  Biso 1.000000     B
    C   1.0     0.342197     0.356689     0.949549  Biso 1.000000     C
    C   1.0     0.342303     0.856654     0.949705  Biso 1.000000     C
    C   1.0     0.841772     0.356249     0.949785  Biso 1.000000     C
    C   1.0     0.842529     0.856666     0.949579  Biso 1.000000     C
    C   1.0     0.298898     0.324696     0.899190  Biso 1.000000     C
    C   1.0     0.299084     0.824581     0.899351  Biso 1.000000     C
    C   1.0     0.798402     0.324339     0.899471  Biso 1.000000     C
    C   1.0     0.799358     0.824529     0.899213  Biso 1.000000     C
    C   1.0     0.316501     0.381260     0.765628  Biso 1.000000     C
    C   1.0     0.316685     0.881060     0.765709  Biso 1.000000     C
    C   1.0     0.816298     0.380670     0.765746  Biso 1.000000     C
    C   1.0     0.816931     0.881000     0.765557  Biso 1.000000     C
    C   1.0     0.413331     0.359581     0.184077  Biso 1.000000     C
    C   1.0     0.413133     0.859660     0.184458  Biso 1.000000     C
    C   1.0     0.912908     0.359111     0.184312  Biso 1.000000     C
    C   1.0     0.913390     0.859713     0.184318  Biso 1.000000     C
    C   1.0     0.157411     0.143496     0.449318  Biso 1.000000     C
    C   1.0     0.157268     0.643545     0.449679  Biso 1.000000     C
    C   1.0     0.657145     0.143316     0.449326  Biso 1.000000     C
    C   1.0     0.657499     0.643475     0.449428  Biso 1.000000     C
    C   1.0     0.200757     0.175460     0.399173  Biso 1.000000     C
    C   1.0     0.200449     0.675653     0.399424  Biso 1.000000     C
    C   1.0     0.700251     0.175403     0.398890  Biso 1.000000     C
    C   1.0     0.700638     0.675622     0.399154  Biso 1.000000     C
    C   1.0     0.183195     0.118920     0.265359  Biso 1.000000     C
    C   1.0     0.182952     0.619029     0.265675  Biso 1.000000     C
    C   1.0     0.682789     0.118525     0.265380  Biso 1.000000     C
    C   1.0     0.683069     0.619092     0.265332  Biso 1.000000     C
    C   1.0     0.086468     0.140672     0.684001  Biso 1.000000     C
    C   1.0     0.086236     0.640775     0.684303  Biso 1.000000     C
    C   1.0     0.586428     0.140545     0.684131  Biso 1.000000     C
    C   1.0     0.586776     0.640508     0.684259  Biso 1.000000     C
    C   1.0     0.393713     0.092085     0.199586  Biso 1.000000     C
    C   1.0     0.393365     0.592889     0.199480  Biso 1.000000     C
    C   1.0     0.893236     0.092623     0.199472  Biso 1.000000     C
    C   1.0     0.893205     0.592514     0.199694  Biso 1.000000     C
    C   1.0     0.425899     0.049048     0.149106  Biso 1.000000     C
    C   1.0     0.425444     0.549730     0.149102  Biso 1.000000     C
    C   1.0     0.925478     0.049650     0.148958  Biso 1.000000     C
    C   1.0     0.925198     0.549239     0.149435  Biso 1.000000     C
    C   1.0     0.369344     0.066576     0.015438  Biso 1.000000     C
    C   1.0     0.368910     0.567245     0.015399  Biso 1.000000     C
    C   1.0     0.868697     0.066887     0.015445  Biso 1.000000     C
    C   1.0     0.868637     0.566648     0.015724  Biso 1.000000     C
    C   1.0     0.390952     0.163136     0.434291  Biso 1.000000     C
    C   1.0     0.390595     0.663904     0.434225  Biso 1.000000     C
    C   1.0     0.890498     0.163572     0.434273  Biso 1.000000     C
    C   1.0     0.890285     0.663522     0.434444  Biso 1.000000     C
    C   1.0     0.105967     0.407931     0.699557  Biso 1.000000     C
    C   1.0     0.106390     0.907603     0.699509  Biso 1.000000     C
    C   1.0     0.606072     0.408208     0.699466  Biso 1.000000     C
    C   1.0     0.606593     0.907300     0.699434  Biso 1.000000     C
    C   1.0     0.073723     0.450902     0.649187  Biso 1.000000     C
    C   1.0     0.074240     0.950683     0.649230  Biso 1.000000     C
    C   1.0     0.573921     0.451237     0.649084  Biso 1.000000     C
    C   1.0     0.574434     0.950369     0.649155  Biso 1.000000     C
    C   1.0     0.130506     0.433614     0.515640  Biso 1.000000     C
    C   1.0     0.130798     0.933223     0.515536  Biso 1.000000     C
    C   1.0     0.630441     0.433575     0.515387  Biso 1.000000     C
    C   1.0     0.630957     0.932862     0.515417  Biso 1.000000     C
    C   1.0     0.109036     0.337071     0.934144  Biso 1.000000     C
    C   1.0     0.109182     0.836676     0.934099  Biso 1.000000     C
    C   1.0     0.608815     0.337211     0.933957  Biso 1.000000     C
    C   1.0     0.609391     0.836356     0.933979  Biso 1.000000     C
    C   1.0     0.407698     0.106066     0.300479  Biso 1.000000     C
    C   1.0     0.407395     0.606922     0.300340  Biso 1.000000     C
    C   1.0     0.907308     0.106654     0.300330  Biso 1.000000     C
    C   1.0     0.907232     0.606599     0.300543  Biso 1.000000     C
    C   1.0     0.450619     0.073767     0.350903  Biso 1.000000     C
    C   1.0     0.450483     0.574782     0.350627  Biso 1.000000     C
    C   1.0     0.950433     0.074520     0.350574  Biso 1.000000     C
    C   1.0     0.950344     0.574511     0.350871  Biso 1.000000     C
    C   1.0     0.433349     0.130559     0.484519  Biso 1.000000     C
    C   1.0     0.433123     0.631444     0.484355  Biso 1.000000     C
    C   1.0     0.933048     0.131098     0.484353  Biso 1.000000     C
    C   1.0     0.932782     0.631068     0.484643  Biso 1.000000     C
    C   1.0     0.336809     0.109022     0.065756  Biso 1.000000     C
    C   1.0     0.336499     0.609821     0.065622  Biso 1.000000     C
    C   1.0     0.836113     0.109293     0.065776  Biso 1.000000     C
    C   1.0     0.836335     0.609372     0.065814  Biso 1.000000     C
    C   1.0     0.091940     0.393891     0.800369  Biso 1.000000     C
    C   1.0     0.092384     0.893604     0.800350  Biso 1.000000     C
    C   1.0     0.592061     0.394253     0.800306  Biso 1.000000     C
    C   1.0     0.592567     0.893286     0.800250  Biso 1.000000     C
    C   1.0     0.048713     0.425877     0.850749  Biso 1.000000     C
    C   1.0     0.049377     0.925834     0.850788  Biso 1.000000     C
    C   1.0     0.549082     0.426501     0.850790  Biso 1.000000     C
    C   1.0     0.549443     0.925401     0.850613  Biso 1.000000     C
    C   1.0     0.066424     0.369423     0.984376  Biso 1.000000     C
    C   1.0     0.066729     0.869227     0.984350  Biso 1.000000     C
    C   1.0     0.566342     0.369715     0.984224  Biso 1.000000     C
    C   1.0     0.566807     0.868773     0.984163  Biso 1.000000     C
    C   1.0     0.163052     0.391191     0.565822  Biso 1.000000     C
    C   1.0     0.163282     0.890714     0.565644  Biso 1.000000     C
    C   1.0     0.662955     0.391151     0.565620  Biso 1.000000     C
    C   1.0     0.663463     0.890387     0.565548  Biso 1.000000     C
    C   1.0     0.356353     0.342574     0.050274  Biso 1.000000     C
    C   1.0     0.356273     0.842668     0.050527  Biso 1.000000     C
    C   1.0     0.855804     0.342241     0.050574  Biso 1.000000     C
    C   1.0     0.856527     0.842693     0.050398  Biso 1.000000     C
    C   1.0     0.324462     0.299190     0.100425  Biso 1.000000     C
    C   1.0     0.324124     0.799519     0.100758  Biso 1.000000     C
    C   1.0     0.823634     0.299149     0.100905  Biso 1.000000     C
    C   1.0     0.824431     0.799494     0.100613  Biso 1.000000     C
    C   1.0     0.381077     0.316803     0.234091  Biso 1.000000     C
    C   1.0     0.380649     0.817094     0.234533  Biso 1.000000     C
    C   1.0     0.880436     0.316572     0.234468  Biso 1.000000     C
    C   1.0     0.880960     0.817092     0.234374  Biso 1.000000     C
    C   1.0     0.359129     0.413682     0.815864  Biso 1.000000     C
    C   1.0     0.359341     0.913464     0.815897  Biso 1.000000     C
    C   1.0     0.859042     0.412955     0.815931  Biso 1.000000     C
    C   1.0     0.859519     0.913481     0.815764  Biso 1.000000     C
    C   1.0     0.143306     0.157624     0.550127  Biso 1.000000     C
    C   1.0     0.143225     0.657623     0.550520  Biso 1.000000     C
    C   1.0     0.643136     0.157539     0.550123  Biso 1.000000     C
    C   1.0     0.643556     0.657471     0.550328  Biso 1.000000     C
    C   1.0     0.175263     0.200993     0.600377  Biso 1.000000     C
    C   1.0     0.175373     0.700782     0.600935  Biso 1.000000     C
    C   1.0     0.675051     0.201014     0.600234  Biso 1.000000     C
    C   1.0     0.675727     0.700622     0.600689  Biso 1.000000     C
    C   1.0     0.118790     0.183436     0.734110  Biso 1.000000     C
    C   1.0     0.118769     0.683313     0.734564  Biso 1.000000     C
    C   1.0     0.618704     0.183400     0.734109  Biso 1.000000     C
    C   1.0     0.619278     0.683091     0.734450  Biso 1.000000     C
    C   1.0     0.140457     0.086592     0.315362  Biso 1.000000     C
    C   1.0     0.140350     0.586581     0.315776  Biso 1.000000     C
    C   1.0     0.640292     0.086062     0.315677  Biso 1.000000     C
    C   1.0     0.640495     0.586615     0.315435  Biso 1.000000     C
    N   1.0     0.371931     0.401704     0.907235  Biso 1.000000     N
    N   1.0     0.372094     0.901593     0.907319  Biso 1.000000     N
    N   1.0     0.871722     0.401072     0.907364  Biso 1.000000     N
    N   1.0     0.872261     0.901647     0.907201  Biso 1.000000     N
    N   1.0     0.285703     0.337198     0.808034  Biso 1.000000     N
    N   1.0     0.285902     0.837014     0.808170  Biso 1.000000     N
    N   1.0     0.785313     0.336788     0.808259  Biso 1.000000     N
    N   1.0     0.786187     0.836924     0.808011  Biso 1.000000     N
    N   1.0     0.127620     0.098546     0.406764  Biso 1.000000     N
    N   1.0     0.127559     0.598511     0.407205  Biso 1.000000     N
    N   1.0     0.627523     0.098138     0.407069  Biso 1.000000     N
    N   1.0     0.627760     0.598481     0.406906  Biso 1.000000     N
    N   1.0     0.214026     0.162940     0.308003  Biso 1.000000     N
    N   1.0     0.213665     0.663168     0.308220  Biso 1.000000     N
    N   1.0     0.713446     0.162774     0.307737  Biso 1.000000     N
    N   1.0     0.713797     0.663206     0.307913  Biso 1.000000     N
    N   1.0     0.348672     0.121717     0.157258  Biso 1.000000     N
    N   1.0     0.348379     0.622561     0.157097  Biso 1.000000     N
    N   1.0     0.848060     0.122094     0.157221  Biso 1.000000     N
    N   1.0     0.848283     0.622236     0.157223  Biso 1.000000     N
    N   1.0     0.413477     0.035927     0.057840  Biso 1.000000     N
    N   1.0     0.412955     0.536523     0.057888  Biso 1.000000     N
    N   1.0     0.912976     0.036401     0.057764  Biso 1.000000     N
    N   1.0     0.912667     0.535932     0.058270  Biso 1.000000     N
    N   1.0     0.151119     0.378417     0.657216  Biso 1.000000     N
    N   1.0     0.151402     0.877950     0.657060  Biso 1.000000     N
    N   1.0     0.651080     0.378506     0.657077  Biso 1.000000     N
    N   1.0     0.651616     0.877662     0.656986  Biso 1.000000     N
    N   1.0     0.086250     0.464134     0.558054  Biso 1.000000     N
    N   1.0     0.086671     0.963877     0.558045  Biso 1.000000     N
    N   1.0     0.586333     0.464281     0.557844  Biso 1.000000     N
    N   1.0     0.586858     0.963533     0.557962  Biso 1.000000     N
    N   1.0     0.378204     0.151240     0.342820  Biso 1.000000     N
    N   1.0     0.377780     0.651970     0.342792  Biso 1.000000     N
    N   1.0     0.877674     0.151672     0.342829  Biso 1.000000     N
    N   1.0     0.877573     0.651628     0.342963  Biso 1.000000     N
    N   1.0     0.463842     0.086273     0.442105  Biso 1.000000     N
    N   1.0     0.463715     0.587271     0.441831  Biso 1.000000     N
    N   1.0     0.963673     0.086960     0.441797  Biso 1.000000     N
    N   1.0     0.963495     0.586985     0.442110  Biso 1.000000     N
    N   1.0     0.121738     0.348986     0.842721  Biso 1.000000     N
    N   1.0     0.121946     0.848535     0.842671  Biso 1.000000     N
    N   1.0     0.621579     0.349129     0.842557  Biso 1.000000     N
    N   1.0     0.622216     0.848287     0.842603  Biso 1.000000     N
    N   1.0     0.035587     0.413395     0.941941  Biso 1.000000     N
    N   1.0     0.036160     0.913406     0.941964  Biso 1.000000     N
    N   1.0     0.535811     0.413943     0.941901  Biso 1.000000     N
    N   1.0     0.536186     0.912906     0.941750  Biso 1.000000     N
    N   1.0     0.401298     0.372411     0.092744  Biso 1.000000     N
    N   1.0     0.401281     0.872382     0.093029  Biso 1.000000     N
    N   1.0     0.900932     0.371869     0.092934  Biso 1.000000     N
    N   1.0     0.901503     0.872459     0.092905  Biso 1.000000     N
    N   1.0     0.337053     0.285939     0.191538  Biso 1.000000     N
    N   1.0     0.336544     0.786359     0.191958  Biso 1.000000     N
    N   1.0     0.836207     0.285935     0.192029  Biso 1.000000     N
    N   1.0     0.836875     0.786324     0.191802  Biso 1.000000     N
    N   1.0     0.098391     0.127818     0.592588  Biso 1.000000     N
    N   1.0     0.098153     0.627975     0.592863  Biso 1.000000     N
    N   1.0     0.598320     0.127663     0.592726  Biso 1.000000     N
    N   1.0     0.598576     0.627761     0.592769  Biso 1.000000     N
    N   1.0     0.162774     0.214273     0.691552  Biso 1.000000     N
    N   1.0     0.162922     0.713991     0.692145  Biso 1.000000     N
    N   1.0     0.662597     0.214297     0.691420  Biso 1.000000     N
    N   1.0     0.663351     0.713817     0.691932  Biso 1.000000     N
    F   1.0     0.474047     0.044383     0.670544  Biso 1.000000     F
    F   1.0     0.474125     0.546909     0.670518  Biso 1.000000     F
    F   1.0     0.974031     0.044393     0.670542  Biso 1.000000     F
    F   1.0     0.971574     0.544227     0.670279  Biso 1.000000     F
    F   1.0     0.377454     0.051837     0.729306  Biso 1.000000     F
    F   1.0     0.377588     0.552197     0.729344  Biso 1.000000     F
    F   1.0     0.877443     0.051841     0.729306  Biso 1.000000     F
    F   1.0     0.875227     0.552184     0.729466  Biso 1.000000     F
    F   1.0     0.455600     0.025967     0.829452  Biso 1.000000     F
    F   1.0     0.455752     0.528441     0.829713  Biso 1.000000     F
    F   1.0     0.955588     0.025977     0.829449  Biso 1.000000     F
    F   1.0     0.953071     0.525878     0.829484  Biso 1.000000     F
    F   1.0     0.448154     0.122540     0.770746  Biso 1.000000     F
    F   1.0     0.447806     0.624769     0.770588  Biso 1.000000     F
    F   1.0     0.948146     0.122548     0.770747  Biso 1.000000     F
    F   1.0     0.947793     0.622404     0.770710  Biso 1.000000     F
    F   1.0     0.025942     0.455586     0.170540  Biso 1.000000     F
    F   1.0     0.025945     0.955603     0.170548  Biso 1.000000     F
    F   1.0     0.525936     0.455594     0.170541  Biso 1.000000     F
    F   1.0     0.525850     0.953087     0.170524  Biso 1.000000     F
    F   1.0     0.122529     0.448153     0.229298  Biso 1.000000     F
    F   1.0     0.122533     0.948160     0.229297  Biso 1.000000     F
    F   1.0     0.622526     0.448154     0.229297  Biso 1.000000     F
    F   1.0     0.622386     0.947806     0.229340  Biso 1.000000     F
    F   1.0     0.044393     0.474068     0.329490  Biso 1.000000     F
    F   1.0     0.044391     0.974072     0.329488  Biso 1.000000     F
    F   1.0     0.544385     0.474068     0.329485  Biso 1.000000     F
    F   1.0     0.544219     0.971611     0.329758  Biso 1.000000     F
    F   1.0     0.051836     0.377473     0.270680  Biso 1.000000     F
    F   1.0     0.051841     0.877482     0.270682  Biso 1.000000     F
    F   1.0     0.551833     0.377479     0.270683  Biso 1.000000     F
    F   1.0     0.552178     0.875267     0.270516  Biso 1.000000     F
    F   1.0     0.203417     0.224187     0.920264  Biso 1.000000     F
    F   1.0     0.205592     0.724040     0.920574  Biso 1.000000     F
    F   1.0     0.703073     0.224133     0.920540  Biso 1.000000     F
    F   1.0     0.705596     0.724043     0.920577  Biso 1.000000     F
    F   1.0     0.198060     0.127516     0.979298  Biso 1.000000     F
    F   1.0     0.198128     0.627468     0.979288  Biso 1.000000     F
    F   1.0     0.697778     0.127610     0.979335  Biso 1.000000     F
    F   1.0     0.698126     0.627468     0.979292  Biso 1.000000     F
    F   1.0     0.223955     0.205664     0.079153  Biso 1.000000     F
    F   1.0     0.224040     0.705618     0.079483  Biso 1.000000     F
    F   1.0     0.721585     0.205782     0.079752  Biso 1.000000     F
    F   1.0     0.724045     0.705623     0.079480  Biso 1.000000     F
    F   1.0     0.126962     0.197987     0.021198  Biso 1.000000     F
    F   1.0     0.127451     0.698150     0.020700  Biso 1.000000     F
    F   1.0     0.625233     0.197805     0.020533  Biso 1.000000     F
    F   1.0     0.627453     0.698148     0.020703  Biso 1.000000     F
    F   1.0     0.294395     0.275938     0.420502  Biso 1.000000     F
    F   1.0     0.294332     0.776051     0.420852  Biso 1.000000     F
    F   1.0     0.794324     0.276032     0.420846  Biso 1.000000     F
    F   1.0     0.794385     0.775955     0.420511  Biso 1.000000     F
    F   1.0     0.301855     0.372528     0.479325  Biso 1.000000     F
    F   1.0     0.302018     0.873032     0.478830  Biso 1.000000     F
    F   1.0     0.802011     0.373017     0.478826  Biso 1.000000     F
    F   1.0     0.801856     0.872538     0.479321  Biso 1.000000     F
    F   1.0     0.275946     0.294416     0.579469  Biso 1.000000     F
    F   1.0     0.275800     0.796593     0.579775  Biso 1.000000     F
    F   1.0     0.775789     0.296589     0.579780  Biso 1.000000     F
    F   1.0     0.775952     0.794419     0.579460  Biso 1.000000     F
    F   1.0     0.372531     0.301872     0.520720  Biso 1.000000     F
    F   1.0     0.372473     0.801960     0.520716  Biso 1.000000     F
    F   1.0     0.872466     0.301948     0.520714  Biso 1.000000     F
    F   1.0     0.872529     0.801884     0.520720  Biso 1.000000     F
   Ag   1.0     0.449677     0.450493    -0.000159  Biso 1.000000    Ag
   Ag   1.0     0.450232     0.949779    -0.000195  Biso 1.000000    Ag
   Ag   1.0     0.949385     0.449848     0.000153  Biso 1.000000    Ag
   Ag   1.0     0.950064     0.950320     0.999925  Biso 1.000000    Ag
   Ag   1.0     0.049746     0.049875     0.499866  Biso 1.000000    Ag
   Ag   1.0     0.049441     0.550136     0.500175  Biso 1.000000    Ag
   Ag   1.0     0.549889     0.049389     0.499992  Biso 1.000000    Ag
   Ag   1.0     0.549642     0.550313     0.499756  Biso 1.000000    Ag
   Ag   1.0     0.300228     0.199807     0.249851  Biso 1.000000    Ag
   Ag   1.0     0.299691     0.700269     0.250115  Biso 1.000000    Ag
   Ag   1.0     0.799444     0.199825     0.249872  Biso 1.000000    Ag
   Ag   1.0     0.799874     0.700283     0.249847  Biso 1.000000    Ag
   Ag   1.0     0.199540     0.300417     0.749746  Biso 1.000000    Ag
   Ag   1.0     0.199843     0.800145     0.750073  Biso 1.000000    Ag
   Ag   1.0     0.699158     0.300403     0.749725  Biso 1.000000    Ag
   Ag   1.0     0.700173     0.799933     0.749934  Biso 1.000000    Ag
