#======================================================================

# CRYSTAL DATA

#----------------------------------------------------------------------

data_VESTA_phase_1


_pd_phase_name                         MOF
_cell_length_a                         14.79900
_cell_length_b                         14.78900
_cell_length_c                         14.79600
_cell_angle_alpha                      109.42400
_cell_angle_beta                       109.41300
_cell_angle_gamma                      109.39800
_symmetry_space_group_name_H-M         "P 1"
_symmetry_Int_Tables_number            1

loop_
_symmetry_equiv_pos_as_xyz
   "x, y, z"

loop_
   _atom_site_label
   _atom_site_occupancy
   _atom_site_fract_x
   _atom_site_fract_y
   _atom_site_fract_z
   _atom_site_adp_type
   _atom_site_B_iso_or_equiv
   _atom_site_type_symbol
    H   1.0     0.883367     0.417477     0.761928  Biso 1.000000     H
    H   1.0     0.659655     0.125606     0.237356  Biso 1.000000     H
    H   1.0     0.342259     0.578540     0.465474  Biso 1.000000     H
    H   1.0     0.117497     0.879571     0.533046  Biso 1.000000     H
    H   1.0     0.757524     0.882976     0.417417  Biso 1.000000     H
    H   1.0     0.233576     0.649873     0.120198  Biso 1.000000     H
    H   1.0     0.465127     0.343456     0.582014  Biso 1.000000     H
    H   1.0     0.542384     0.112394     0.875320  Biso 1.000000     H
    H   1.0     0.408873     0.759829     0.881263  Biso 1.000000     H
    H   1.0     0.123876     0.235561     0.661212  Biso 1.000000     H
    H   1.0     0.584669     0.470833     0.348047  Biso 1.000000     H
    H   1.0     0.877171     0.539123     0.115696  Biso 1.000000     H
    H   1.0     0.427146     0.882834     0.759001  Biso 1.000000     H
    H   1.0     0.119783     0.648718     0.236390  Biso 1.000000     H
    H   1.0     0.578099     0.342733     0.465038  Biso 1.000000     H
    H   1.0     0.873756     0.112576     0.532727  Biso 1.000000     H
    H   1.0     0.888092     0.767180     0.417796  Biso 1.000000     H
    H   1.0     0.659851     0.242511     0.124218  Biso 1.000000     H
    H   1.0     0.337380     0.460177     0.577058  Biso 1.000000     H
    H   1.0     0.112808     0.529450     0.877136  Biso 1.000000     H
    H   1.0     0.763683     0.420854     0.886306  Biso 1.000000     H
    H   1.0     0.241319     0.123027     0.666481  Biso 1.000000     H
    H   1.0     0.466617     0.582799     0.344588  Biso 1.000000     H
    H   1.0     0.523703     0.876549     0.110748  Biso 1.000000     H
    H   1.0     0.552451     0.473821     0.796012  Biso 1.000000     H
    H   1.0     0.521485     0.535234     0.898131  Biso 1.000000     H
    H   1.0     0.475384     0.542745     0.775632  Biso 1.000000     H
    H   1.0     0.923334     0.238719     0.448444  Biso 1.000000     H
    H   1.0     0.070384     0.305677     0.523162  Biso 1.000000     H
    H   1.0     0.000000     0.372886     0.473895  Biso 1.000000     H
    H   1.0     0.902479     0.524474     0.535740  Biso 1.000000     H
    H   1.0     0.782829     0.478710     0.548009  Biso 1.000000     H
    H   1.0     0.798791     0.555242     0.477923  Biso 1.000000     H
    H   1.0     0.243618     0.771323     0.731259  Biso 1.000000     H
    H   1.0     0.172602     0.649140     0.733417  Biso 1.000000     H
    H   1.0     0.113012     0.664256     0.617113  Biso 1.000000     H
    H   1.0     0.984366     0.465848     0.368013  Biso 1.000000     H
    H   1.0     0.078888     0.524294     0.327946  Biso 1.000000     H
    H   1.0     0.933727     0.455689     0.236683  Biso 1.000000     H
    H   1.0     0.513247     0.049666     0.275309  Biso 1.000000     H
    H   1.0     0.489843     0.040995     0.382360  Biso 1.000000     H
    H   1.0     0.438671     0.917807     0.259679  Biso 1.000000     H
    H   1.0     0.549148     0.789869     0.474180  Biso 1.000000     H
    H   1.0     0.476223     0.790488     0.548860  Biso 1.000000     H
    H   1.0     0.525744     0.901503     0.524466  Biso 1.000000     H
    H   1.0     0.688620     0.212224     0.761462  Biso 1.000000     H
    H   1.0     0.762454     0.213195     0.687696  Biso 1.000000     H
    H   1.0     0.629250     0.100054     0.627722  Biso 1.000000     H
    H   1.0     0.382461     0.041300     0.492203  Biso 1.000000     H
    H   1.0     0.276408     0.049151     0.518130  Biso 1.000000     H
    H   1.0     0.260884     0.917666     0.442243  Biso 1.000000     H
    H   1.0     0.310841     0.519480     0.070441  Biso 1.000000     H
    H   1.0     0.383817     0.476502     0.008838  Biso 1.000000     H
    H   1.0     0.247702     0.443889     0.923758  Biso 1.000000     H
    H   1.0     0.762125     0.692101     0.213349  Biso 1.000000     H
    H   1.0     0.682967     0.760421     0.207307  Biso 1.000000     H
    H   1.0     0.628535     0.625951     0.098562  Biso 1.000000     H
    H   1.0     0.525424     0.349628     0.085345  Biso 1.000000     H
    H   1.0     0.474020     0.227926     0.960701  Biso 1.000000     H
    H   1.0     0.450286     0.335668     0.954780  Biso 1.000000     H
    C   1.0     0.941471     0.415274     0.733095  Biso 1.000000     C
    C   1.0     0.686458     0.212610     0.266892  Biso 1.000000     C
    C   1.0     0.314681     0.580209     0.525066  Biso 1.000000     C
    C   1.0     0.059006     0.792650     0.474220  Biso 1.000000     C
    C   1.0     0.729491     0.941767     0.415769  Biso 1.000000     C
    C   1.0     0.263227     0.678593     0.207496  Biso 1.000000     C
    C   1.0     0.524924     0.316289     0.583149  Biso 1.000000     C
    C   1.0     0.480430     0.055125     0.788976  Biso 1.000000     C
    C   1.0     0.410369     0.731253     0.940100  Biso 1.000000     C
    C   1.0     0.210750     0.264860     0.687764  Biso 1.000000     C
    C   1.0     0.584809     0.529256     0.319087  Biso 1.000000     C
    C   1.0     0.790850     0.477558     0.057833  Biso 1.000000     C
    C   1.0     0.423472     0.941600     0.731502  Biso 1.000000     C
    C   1.0     0.206981     0.678099     0.264946  Biso 1.000000     C
    C   1.0     0.580867     0.316029     0.525385  Biso 1.000000     C
    C   1.0     0.786900     0.055269     0.472755  Biso 1.000000     C
    C   1.0     0.945561     0.737080     0.417095  Biso 1.000000     C
    C   1.0     0.686892     0.270426     0.210996  Biso 1.000000     C
    C   1.0     0.312358     0.521761     0.580309  Biso 1.000000     C
    C   1.0     0.054923     0.470717     0.790063  Biso 1.000000     C
    C   1.0     0.734716     0.419142     0.944419  Biso 1.000000     C
    C   1.0     0.268762     0.209159     0.690120  Biso 1.000000     C
    C   1.0     0.526538     0.584703     0.317464  Biso 1.000000     C
    C   1.0     0.467136     0.788927     0.053519  Biso 1.000000     C
    C   1.0    -0.001454     0.367517     0.615367  Biso 1.000000     C
    C   1.0     0.756557     0.386742     0.385824  Biso 1.000000     C
    C   1.0     0.244006     0.628048     0.629142  Biso 1.000000     C
    C   1.0     0.001020     0.617252     0.371864  Biso 1.000000     C
    C   1.0     0.612882     0.000301     0.368872  Biso 1.000000     C
    C   1.0     0.382498     0.752749     0.382362  Biso 1.000000     C
    C   1.0     0.630244     0.246553     0.630250  Biso 1.000000     C
    C   1.0     0.372579     0.000169     0.615928  Biso 1.000000     C
    C   1.0     0.370015     0.613520    -0.001209  Biso 1.000000     C
    C   1.0     0.384251     0.382981     0.754811  Biso 1.000000     C
    C   1.0     0.630140     0.631753     0.246201  Biso 1.000000     C
    C   1.0     0.616934     0.371259     0.001365  Biso 1.000000     C
    C   1.0    -0.000902     0.318321     0.509889  Biso 1.000000     C
    C   1.0     0.812613     0.491612     0.492143  Biso 1.000000     C
    C   1.0     0.190835     0.680917     0.680721  Biso 1.000000     C
    C   1.0    -0.000383     0.510502     0.323400  Biso 1.000000     C
    C   1.0     0.508280     0.002037     0.318603  Biso 1.000000     C
    C   1.0     0.488751     0.811207     0.487762  Biso 1.000000     C
    C   1.0     0.680553     0.190608     0.679637  Biso 1.000000     C
    C   1.0     0.319986     0.001914     0.511770  Biso 1.000000     C
    C   1.0     0.325456     0.508005     0.000442  Biso 1.000000     C
    C   1.0     0.488681     0.488927     0.808422  Biso 1.000000     C
    C   1.0     0.678719     0.680402     0.188859  Biso 1.000000     C
    C   1.0     0.511482     0.318385     0.000824  Biso 1.000000     C
    N   1.0     0.906012     0.349752     0.622791  Biso 1.000000     N
    N   1.0     0.729994     0.286174     0.377251  Biso 1.000000     N
    N   1.0     0.271820     0.647601     0.556334  Biso 1.000000     N
    N   1.0     0.093888     0.716834     0.445286  Biso 1.000000     N
    N   1.0     0.619580     0.907201     0.349870  Biso 1.000000     N
    N   1.0     0.374052     0.725407     0.281820  Biso 1.000000     N
    N   1.0     0.556559     0.272737     0.649682  Biso 1.000000     N
    N   1.0     0.447793     0.091984     0.715949  Biso 1.000000     N
    N   1.0     0.348752     0.620489     0.905692  Biso 1.000000     N
    N   1.0     0.283796     0.374566     0.728241  Biso 1.000000     N
    N   1.0     0.650536     0.559432     0.274357  Biso 1.000000     N
    N   1.0     0.716324     0.446906     0.093692  Biso 1.000000     N
    N   1.0     0.355015     0.907047     0.622234  Biso 1.000000     N
    N   1.0     0.282475     0.724607     0.375353  Biso 1.000000     N
    N   1.0     0.647692     0.272313     0.555588  Biso 1.000000     N
    N   1.0     0.713178     0.092105     0.442708  Biso 1.000000     N
    N   1.0     0.909111     0.626340     0.352108  Biso 1.000000     N
    N   1.0     0.730864     0.380360     0.286224  Biso 1.000000     N
    N   1.0     0.268010     0.552406     0.646347  Biso 1.000000     N
    N   1.0     0.090799     0.440111     0.715539  Biso 1.000000     N
    N   1.0     0.624924     0.351715     0.908904  Biso 1.000000     N
    N   1.0     0.378294     0.283844     0.732039  Biso 1.000000     N
    N   1.0     0.555661     0.649762     0.271796  Biso 1.000000     N
    N   1.0     0.441218     0.714426     0.090438  Biso 1.000000     N
   Zn   1.0     0.748800     0.250044     0.499002  Biso 1.000000    Zn
   Zn   1.0     0.250835     0.749518     0.500561  Biso 1.000000    Zn
   Zn   1.0     0.497622     0.749514     0.247916  Biso 1.000000    Zn
   Zn   1.0     0.501713     0.249778     0.751837  Biso 1.000000    Zn
   Zn   1.0     0.248015     0.496875     0.748849  Biso 1.000000    Zn
   Zn   1.0     0.751906     0.503507     0.251731  Biso 1.000000    Zn
