#======================================================================

# CRYSTAL DATA

#----------------------------------------------------------------------

data_VESTA_phase_1


_pd_phase_name                         MOF
_cell_length_a                         20.32200
_cell_length_b                         13.01900
_cell_length_c                         18.70500
_cell_angle_alpha                      90.00000
_cell_angle_beta                       90.00000
_cell_angle_gamma                      98.67000
_symmetry_space_group_name_H-M         "P 1"
_symmetry_Int_Tables_number            1

loop_
_symmetry_equiv_pos_as_xyz
   "x, y, z"

loop_
   _atom_site_label
   _atom_site_occupancy
   _atom_site_fract_x
   _atom_site_fract_y
   _atom_site_fract_z
   _atom_site_adp_type
   _atom_site_B_iso_or_equiv
   _atom_site_type_symbol
    H   1.0     0.137519     0.140358     0.687515  Biso 1.000000     H
    H   1.0     0.642814     0.140364     0.687514  Biso 1.000000     H
    H   1.0     0.135653     0.126898     0.593897  Biso 1.000000     H
    H   1.0     0.640954     0.126904     0.593895  Biso 1.000000     H
    H   1.0     0.069350     0.000000     0.766451  Biso 1.000000     H
    H   1.0     0.574635     0.000000     0.766444  Biso 1.000000     H
    H   1.0     0.021592     0.894935     0.726115  Biso 1.000000     H
    H   1.0     0.526877     0.894950     0.726106  Biso 1.000000     H
    H   1.0     0.081526     0.756882     0.666783  Biso 1.000000     H
    H   1.0     0.586811     0.756888     0.666782  Biso 1.000000     H
    H   1.0     0.169479     0.774273     0.663869  Biso 1.000000     H
    H   1.0     0.674763     0.774274     0.663876  Biso 1.000000     H
    H   1.0     0.193741    -0.009972     0.533515  Biso 1.000000     H
    H   1.0     0.699041    -0.009973     0.533519  Biso 1.000000     H
    H   1.0     0.233358     0.914354     0.586260  Biso 1.000000     H
    H   1.0     0.738652     0.914350     0.586268  Biso 1.000000     H
    H   1.0     0.237391     0.933968     0.721258  Biso 1.000000     H
    H   1.0     0.742675     0.933962     0.721267  Biso 1.000000     H
    H   1.0     0.199849     0.021877     0.763825  Biso 1.000000     H
    H   1.0     0.705135     0.021877     0.763830  Biso 1.000000     H
    H   1.0     0.017915     0.876407     0.590878  Biso 1.000000     H
    H   1.0     0.523209     0.876418     0.590870  Biso 1.000000     H
    H   1.0     0.063641     0.972838     0.536148  Biso 1.000000     H
    H   1.0     0.568942     0.972846     0.536142  Biso 1.000000     H
    H   1.0     0.114075     0.362746     0.180902  Biso 1.000000     H
    H   1.0     0.619364     0.362746     0.180899  Biso 1.000000     H
    H   1.0     0.116168     0.377068     0.087359  Biso 1.000000     H
    H   1.0     0.621460     0.377069     0.087356  Biso 1.000000     H
    H   1.0     0.177663     0.504024     0.260548  Biso 1.000000     H
    H   1.0     0.682946     0.504025     0.260549  Biso 1.000000     H
    H   1.0     0.225351     0.614582     0.220731  Biso 1.000000     H
    H   1.0     0.730634     0.614585     0.220733  Biso 1.000000     H
    H   1.0     0.165252     0.752645     0.161704  Biso 1.000000     H
    H   1.0     0.670532     0.752648     0.161705  Biso 1.000000     H
    H   1.0     0.077320     0.734894     0.158500  Biso 1.000000     H
    H   1.0     0.582600     0.734887     0.158495  Biso 1.000000     H
    H   1.0     0.057871     0.513821     0.027367  Biso 1.000000     H
    H   1.0     0.563166     0.513818     0.027360  Biso 1.000000     H
    H   1.0     0.013852     0.595221     0.080247  Biso 1.000000     H
    H   1.0     0.519141     0.595216     0.080235  Biso 1.000000     H
    H   1.0     0.009511     0.574472     0.215270  Biso 1.000000     H
    H   1.0     0.514793     0.574466     0.215263  Biso 1.000000     H
    H   1.0     0.051295     0.480246     0.257544  Biso 1.000000     H
    H   1.0     0.556577     0.480240     0.257538  Biso 1.000000     H
    H   1.0     0.229363     0.634148     0.085478  Biso 1.000000     H
    H   1.0     0.734652     0.634154     0.085484  Biso 1.000000     H
    H   1.0     0.183938     0.537877     0.030368  Biso 1.000000     H
    H   1.0     0.689233     0.537885     0.030369  Biso 1.000000     H
    H   1.0     0.364124     0.864724     0.323794  Biso 1.000000     H
    H   1.0     0.869418     0.864724     0.323782  Biso 1.000000     H
    H   1.0     0.365986     0.878211     0.417410  Biso 1.000000     H
    H   1.0     0.871280     0.878208     0.417398  Biso 1.000000     H
    H   1.0     0.432281     0.000121     0.244846  Biso 1.000000     H
    H   1.0     0.937572     0.000122     0.244835  Biso 1.000000     H
    H   1.0     0.480044     0.110155     0.285170  Biso 1.000000     H
    H   1.0     0.985336     0.110156     0.285159  Biso 1.000000     H
    H   1.0     0.420094     0.248214     0.344512  Biso 1.000000     H
    H   1.0     0.925384     0.248213     0.344504  Biso 1.000000     H
    H   1.0     0.332142     0.230804     0.347423  Biso 1.000000     H
    H   1.0     0.837432     0.230801     0.347416  Biso 1.000000     H
    H   1.0     0.307883     0.000000     0.477772  Biso 1.000000     H
    H   1.0     0.813177     0.000000     0.477764  Biso 1.000000     H
    H   1.0     0.268268     0.090730     0.425017  Biso 1.000000     H
    H   1.0     0.773561     0.090725     0.425010  Biso 1.000000     H
    H   1.0     0.264238     0.071091     0.290021  Biso 1.000000     H
    H   1.0     0.769529     0.071089     0.290014  Biso 1.000000     H
    H   1.0     0.301800     0.983194     0.247465  Biso 1.000000     H
    H   1.0     0.807090     0.983193     0.247456  Biso 1.000000     H
    H   1.0     0.483710     0.128691     0.420443  Biso 1.000000     H
    H   1.0     0.989003     0.128691     0.420433  Biso 1.000000     H
    H   1.0     0.437967     0.032248     0.475152  Biso 1.000000     H
    H   1.0     0.943261     0.032246     0.475141  Biso 1.000000     H
    H   1.0     0.387739     0.642607     0.830070  Biso 1.000000     H
    H   1.0     0.893046     0.642650     0.830014  Biso 1.000000     H
    H   1.0     0.385619     0.628384     0.923623  Biso 1.000000     H
    H   1.0     0.890923     0.628446     0.923568  Biso 1.000000     H
    H   1.0     0.324089     0.501453     0.750488  Biso 1.000000     H
    H   1.0     0.829390     0.501474     0.750445  Biso 1.000000     H
    H   1.0     0.276367     0.390913     0.790281  Biso 1.000000     H
    H   1.0     0.781671     0.390943     0.790252  Biso 1.000000     H
    H   1.0     0.336282     0.252818     0.849300  Biso 1.000000     H
    H   1.0     0.841590     0.252858     0.849281  Biso 1.000000     H
    H   1.0     0.424219     0.270234     0.852495  Biso 1.000000     H
    H   1.0     0.929528     0.270279     0.852475  Biso 1.000000     H
    H   1.0     0.443895     0.491379     0.983660  Biso 1.000000     H
    H   1.0     0.949200     0.491446     0.983619  Biso 1.000000     H
    H   1.0     0.487837     0.409979     0.930691  Biso 1.000000     H
    H   1.0     0.993143     0.410040     0.930656  Biso 1.000000     H
    H   1.0     0.492207     0.430739     0.795821  Biso 1.000000     H
    H   1.0     0.997512     0.430779     0.795786  Biso 1.000000     H
    H   1.0     0.450523     0.525046     0.753497  Biso 1.000000     H
    H   1.0     0.955825     0.525077     0.753455  Biso 1.000000     H
    H   1.0     0.272348     0.371418     0.925600  Biso 1.000000     H
    H   1.0     0.777657     0.371484     0.925569  Biso 1.000000     H
    H   1.0     0.317890     0.467655     0.980638  Biso 1.000000     H
    H   1.0     0.823205     0.467732     0.980594  Biso 1.000000     H
    C   1.0     0.262516     0.100793     0.638236  Biso 1.000000     C
    C   1.0     0.767813     0.100791     0.638239  Biso 1.000000     C
    C   1.0     0.009830     0.056667     0.648259  Biso 1.000000     C
    C   1.0     0.515123     0.056677     0.648254  Biso 1.000000     C
    C   1.0     0.129477     0.835672     0.795982  Biso 1.000000     C
    C   1.0     0.634752     0.835677     0.795984  Biso 1.000000     C
    C   1.0     0.127435     0.801937     0.527667  Biso 1.000000     C
    C   1.0     0.632730     0.801939     0.527668  Biso 1.000000     C
    C   1.0     0.196860     0.026748     0.647324  Biso 1.000000     C
    C   1.0     0.702154     0.026748     0.647328  Biso 1.000000     C
    C   1.0     0.071765     0.003742     0.649926  Biso 1.000000     C
    C   1.0     0.577059     0.003752     0.649920  Biso 1.000000     C
    C   1.0     0.128884     0.893038     0.724699  Biso 1.000000     C
    C   1.0     0.634168     0.893043     0.724700  Biso 1.000000     C
    C   1.0     0.125021     0.874268     0.590737  Biso 1.000000     C
    C   1.0     0.630314     0.874271     0.590737  Biso 1.000000     C
    C   1.0     0.135746     0.083187     0.644090  Biso 1.000000     C
    C   1.0     0.641042     0.083193     0.644088  Biso 1.000000     C
    C   1.0     0.067846     0.950496     0.721418  Biso 1.000000     C
    C   1.0     0.573133     0.950506     0.721413  Biso 1.000000     C
    C   1.0     0.126318     0.815618     0.662130  Biso 1.000000     C
    C   1.0     0.631604     0.815622     0.662131  Biso 1.000000     C
    C   1.0     0.189582     0.954568     0.584723  Biso 1.000000     C
    C   1.0     0.694877     0.954566     0.584728  Biso 1.000000     C
    C   1.0     0.193265     0.973319     0.718776  Biso 1.000000     C
    C   1.0     0.698553     0.973319     0.718781  Biso 1.000000     C
    C   1.0     0.064317     0.931714     0.587424  Biso 1.000000     C
    C   1.0     0.569612     0.931723     0.587419  Biso 1.000000     C
    C   1.0     0.494407     0.401763     0.131593  Biso 1.000000     C
    C   1.0     0.999704     0.401774     0.131605  Biso 1.000000     C
    C   1.0     0.241730     0.447007     0.142423  Biso 1.000000     C
    C   1.0     0.747019     0.447012     0.142425  Biso 1.000000     C
    C   1.0     0.117267     0.672696     0.290498  Biso 1.000000     C
    C   1.0     0.622547     0.672694     0.290497  Biso 1.000000     C
    C   1.0     0.119576     0.708361     0.022330  Biso 1.000000     C
    C   1.0     0.624866     0.708361     0.022329  Biso 1.000000     C
    C   1.0     0.054534     0.476330     0.141068  Biso 1.000000     C
    C   1.0     0.559821     0.476326     0.141062  Biso 1.000000     C
    C   1.0     0.179737     0.499910     0.143998  Biso 1.000000     C
    C   1.0     0.685025     0.499913     0.143997  Biso 1.000000     C
    C   1.0     0.117988     0.615933     0.219015  Biso 1.000000     C
    C   1.0     0.623271     0.615930     0.219014  Biso 1.000000     C
    C   1.0     0.122169     0.635688     0.085147  Biso 1.000000     C
    C   1.0     0.627457     0.635688     0.085146  Biso 1.000000     C
    C   1.0     0.115852     0.420301     0.137724  Biso 1.000000     C
    C   1.0     0.621141     0.420301     0.137721  Biso 1.000000     C
    C   1.0     0.179214     0.558821     0.215702  Biso 1.000000     C
    C   1.0     0.684498     0.558821     0.215702  Biso 1.000000     C
    C   1.0     0.120578     0.693761     0.156722  Biso 1.000000     C
    C   1.0     0.625860     0.693759     0.156721  Biso 1.000000     C
    C   1.0     0.057699     0.555155     0.078711  Biso 1.000000     C
    C   1.0     0.562989     0.555151     0.078705  Biso 1.000000     C
    C   1.0     0.053763     0.535426     0.212707  Biso 1.000000     C
    C   1.0     0.559045     0.535421     0.212702  Biso 1.000000     C
    C   1.0     0.183067     0.578635     0.081764  Biso 1.000000     C
    C   1.0     0.688357     0.578641     0.081765  Biso 1.000000     C
    C   1.0     0.239143     0.904320     0.373088  Biso 1.000000     C
    C   1.0     0.744435     0.904317     0.373082  Biso 1.000000     C
    C   1.0     0.491823     0.948457     0.363058  Biso 1.000000     C
    C   1.0     0.997117     0.948458     0.363053  Biso 1.000000     C
    C   1.0     0.372150     0.169501     0.215327  Biso 1.000000     C
    C   1.0     0.877435     0.169507     0.215321  Biso 1.000000     C
    C   1.0     0.374171     0.203187     0.483606  Biso 1.000000     C
    C   1.0     0.879464     0.203183     0.483598  Biso 1.000000     C
    C   1.0     0.304788     0.978352     0.363966  Biso 1.000000     C
    C   1.0     0.810080     0.978348     0.363957  Biso 1.000000     C
    C   1.0     0.429874     0.000000     0.361375  Biso 1.000000     C
    C   1.0     0.935167     0.000000     0.361365  Biso 1.000000     C
    C   1.0     0.372750     0.112066     0.286589  Biso 1.000000     C
    C   1.0     0.878040     0.112064     0.286579  Biso 1.000000     C
    C   1.0     0.376603     0.130830     0.420556  Biso 1.000000     C
    C   1.0     0.881895     0.130828     0.420547  Biso 1.000000     C
    C   1.0     0.365898     0.921910     0.367211  Biso 1.000000     C
    C   1.0     0.871192     0.921908     0.367200  Biso 1.000000     C
    C   1.0     0.433789     0.054601     0.289872  Biso 1.000000     C
    C   1.0     0.939081     0.054601     0.289861  Biso 1.000000     C
    C   1.0     0.375307     0.189470     0.349164  Biso 1.000000     C
    C   1.0     0.880598     0.189468     0.349155  Biso 1.000000     C
    C   1.0     0.312050     0.050530     0.426564  Biso 1.000000     C
    C   1.0     0.817343     0.050527     0.426556  Biso 1.000000     C
    C   1.0     0.308374     0.031765     0.292507  Biso 1.000000     C
    C   1.0     0.813665     0.031763     0.292499  Biso 1.000000     C
    C   1.0     0.437306     0.073387     0.423879  Biso 1.000000     C
    C   1.0     0.942599     0.073386     0.423869  Biso 1.000000     C
    C   1.0     0.007325     0.603542     0.879619  Biso 1.000000     C
    C   1.0     0.512609     0.603507     0.879644  Biso 1.000000     C
    C   1.0     0.260000     0.558400     0.868766  Biso 1.000000     C
    C   1.0     0.765302     0.558443     0.868733  Biso 1.000000     C
    C   1.0     0.384448     0.332938     0.720430  Biso 1.000000     C
    C   1.0     0.889752     0.332969     0.720402  Biso 1.000000     C
    C   1.0     0.382053     0.297398     0.988904  Biso 1.000000     C
    C   1.0     0.887346     0.297531     0.988902  Biso 1.000000     C
    C   1.0     0.447210     0.528996     0.869980  Biso 1.000000     C
    C   1.0     0.952514     0.529044     0.869937  Biso 1.000000     C
    C   1.0     0.322006     0.505540     0.867030  Biso 1.000000     C
    C   1.0     0.827311     0.505593     0.866984  Biso 1.000000     C
    C   1.0     0.383719     0.389462     0.792008  Biso 1.000000     C
    C   1.0     0.889025     0.389495     0.791978  Biso 1.000000     C
    C   1.0     0.379517     0.369676     0.925856  Biso 1.000000     C
    C   1.0     0.884823     0.369742     0.925821  Biso 1.000000     C
    C   1.0     0.385913     0.585094     0.873282  Biso 1.000000     C
    C   1.0     0.891218     0.585146     0.873232  Biso 1.000000     C
    C   1.0     0.322514     0.446649     0.795330  Biso 1.000000     C
    C   1.0     0.827817     0.446682     0.795293  Biso 1.000000     C
    C   1.0     0.381039     0.311545     0.854288  Biso 1.000000     C
    C   1.0     0.886347     0.311588     0.854265  Biso 1.000000     C
    C   1.0     0.444018     0.450111     0.932288  Biso 1.000000     C
    C   1.0     0.949323     0.450171     0.932249  Biso 1.000000     C
    C   1.0     0.447997     0.469893     0.798353  Biso 1.000000     C
    C   1.0     0.953302     0.469931     0.798315  Biso 1.000000     C
    C   1.0     0.318681     0.426853     0.929254  Biso 1.000000     C
    C   1.0     0.823989     0.426923     0.929213  Biso 1.000000     C
    O   1.0     0.315626     0.061645     0.646187  Biso 1.000000     O
    O   1.0     0.820922     0.061645     0.646196  Biso 1.000000     O
    O   1.0     0.259259     0.195089     0.620851  Biso 1.000000     O
    O   1.0     0.764557     0.195087     0.620854  Biso 1.000000     O
    O   1.0     0.145643     0.745705     0.796647  Biso 1.000000     O
    O   1.0     0.650922     0.745712     0.796654  Biso 1.000000     O
    O   1.0     0.112413     0.884276     0.851830  Biso 1.000000     O
    O   1.0     0.617681     0.884279     0.851829  Biso 1.000000     O
    O   1.0     0.013804     0.154986     0.646551  Biso 1.000000     O
    O   1.0     0.519094     0.154995     0.646549  Biso 1.000000     O
    O   1.0     0.457638    -0.000758     0.649417  Biso 1.000000     O
    O   1.0     0.962931    -0.000763     0.649420  Biso 1.000000     O
    O   1.0     0.094980     0.813630     0.470254  Biso 1.000000     O
    O   1.0     0.600274     0.813631     0.470255  Biso 1.000000     O
    O   1.0     0.166088     0.732372     0.529818  Biso 1.000000     O
    O   1.0     0.671383     0.732374     0.529820  Biso 1.000000     O
    O   1.0     0.440878     0.439272     0.140873  Biso 1.000000     O
    O   1.0     0.946182     0.439286     0.140906  Biso 1.000000     O
    O   1.0     0.498339     0.308379     0.112442  Biso 1.000000     O
    O   1.0     0.000000     0.308389     0.112444  Biso 1.000000     O
    O   1.0     0.102926     0.763764     0.291275  Biso 1.000000     O
    O   1.0     0.608202     0.763760     0.291273  Biso 1.000000     O
    O   1.0     0.132483     0.622478     0.346480  Biso 1.000000     O
    O   1.0     0.637774     0.622484     0.346478  Biso 1.000000     O
    O   1.0     0.237425     0.348559     0.140702  Biso 1.000000     O
    O   1.0     0.742718     0.348565     0.140707  Biso 1.000000     O
    O   1.0     0.299311     0.503936     0.143790  Biso 1.000000     O
    O   1.0     0.804598     0.503948     0.143804  Biso 1.000000     O
    O   1.0     0.152181     0.695633     0.975981  Biso 1.000000     O
    O   1.0     0.657472     0.695636     0.975980  Biso 1.000000     O
    O   1.0     0.081030     0.777963     0.024715  Biso 1.000000     O
    O   1.0     0.586321     0.777964     0.024714  Biso 1.000000     O
    O   1.0     0.186035     0.943487     0.365189  Biso 1.000000     O
    O   1.0     0.691328     0.943484     0.365185  Biso 1.000000     O
    O   1.0     0.242412     0.810030     0.390478  Biso 1.000000     O
    O   1.0     0.747706     0.810029     0.390476  Biso 1.000000     O
    O   1.0     0.355978     0.259465     0.214704  Biso 1.000000     O
    O   1.0     0.861269     0.259473     0.214706  Biso 1.000000     O
    O   1.0     0.389195     0.120963     0.159437  Biso 1.000000     O
    O   1.0     0.894475     0.120976     0.159424  Biso 1.000000     O
    O   1.0     0.487863     0.850133     0.364761  Biso 1.000000     O
    O   1.0     0.993157     0.850133     0.364753  Biso 1.000000     O
    O   1.0     0.044004     0.000000     0.361915  Biso 1.000000     O
    O   1.0     0.549297     0.000000     0.361918  Biso 1.000000     O
    O   1.0     0.406633     0.191549     0.541021  Biso 1.000000     O
    O   1.0     0.911925     0.191545     0.541013  Biso 1.000000     O
    O   1.0     0.335508     0.272731     0.481435  Biso 1.000000     O
    O   1.0     0.840800     0.272726     0.481427  Biso 1.000000     O
    O   1.0     0.060877     0.566011     0.870512  Biso 1.000000     O
    O   1.0     0.566163     0.565984     0.870529  Biso 1.000000     O
    O   1.0     0.003339     0.696866     0.898842  Biso 1.000000     O
    O   1.0     0.508625     0.696840     0.898851  Biso 1.000000     O
    O   1.0     0.399024     0.242028     0.719318  Biso 1.000000     O
    O   1.0     0.904361     0.242079     0.719278  Biso 1.000000     O
    O   1.0     0.368977     0.383212     0.664596  Biso 1.000000     O
    O   1.0     0.874265     0.383235     0.664573  Biso 1.000000     O
    O   1.0     0.264256     0.656827     0.870594  Biso 1.000000     O
    O   1.0     0.769551     0.656866     0.870585  Biso 1.000000     O
    O   1.0     0.202429     0.501423     0.867496  Biso 1.000000     O
    O   1.0     0.707732     0.501457     0.867480  Biso 1.000000     O
    O   1.0     0.349711     0.311213     0.035210  Biso 1.000000     O
    O   1.0     0.855051     0.311544     0.035195  Biso 1.000000     O
    O   1.0     0.420300     0.227333     0.986700  Biso 1.000000     O
    O   1.0     0.925528     0.227366     0.986723  Biso 1.000000     O
   Zn   1.0     0.411767     0.129185     0.646103  Biso 1.000000    Zn
   Zn   1.0     0.917065     0.129183     0.646098  Biso 1.000000    Zn
   Zn   1.0     0.335950     0.294228     0.586921  Biso 1.000000    Zn
   Zn   1.0     0.841243     0.294227     0.586913  Biso 1.000000    Zn
   Zn   1.0     0.344265     0.371890     0.140661  Biso 1.000000    Zn
   Zn   1.0     0.849563     0.371917     0.140672  Biso 1.000000    Zn
   Zn   1.0     0.420590     0.209671     0.081142  Biso 1.000000    Zn
   Zn   1.0     0.925877     0.209699     0.081141  Biso 1.000000    Zn
   Zn   1.0     0.089897     0.875939     0.365135  Biso 1.000000    Zn
   Zn   1.0     0.595189     0.875939     0.365135  Biso 1.000000    Zn
   Zn   1.0     0.165655     0.710972     0.424343  Biso 1.000000    Zn
   Zn   1.0     0.670947     0.710974     0.424343  Biso 1.000000    Zn
   Zn   1.0     0.157431     0.633415     0.870750  Biso 1.000000    Zn
   Zn   1.0     0.662717     0.633417     0.870751  Biso 1.000000    Zn
   Zn   1.0     0.081017     0.795689     0.930182  Biso 1.000000    Zn
   Zn   1.0     0.586302     0.795684     0.930181  Biso 1.000000    Zn
