#======================================================================

# CRYSTAL DATA

#----------------------------------------------------------------------

data_VESTA_phase_1


_pd_phase_name                         MOF
_cell_length_a                         18.41300
_cell_length_b                         18.42400
_cell_length_c                         18.42400
_cell_angle_alpha                      60.20300
_cell_angle_beta                       60.23400
_cell_angle_gamma                      60.23400
_symmetry_space_group_name_H-M         "P 1"
_symmetry_Int_Tables_number            1

loop_
_symmetry_equiv_pos_as_xyz
   "x, y, z"

loop_
   _atom_site_label
   _atom_site_occupancy
   _atom_site_fract_x
   _atom_site_fract_y
   _atom_site_fract_z
   _atom_site_adp_type
   _atom_site_B_iso_or_equiv
   _atom_site_type_symbol
    H   1.0     0.451400     0.451341     0.932172  Biso 1.000000     H
    H   1.0     0.452428     0.452383     0.164245  Biso 1.000000     H
    H   1.0     0.931877     0.164258     0.451791  Biso 1.000000     H
    H   1.0     0.164327     0.931955     0.451722  Biso 1.000000     H
    H   1.0     0.451816     0.931846     0.164269  Biso 1.000000     H
    H   1.0     0.451817     0.164258     0.931879  Biso 1.000000     H
    H   1.0     0.931985     0.451454     0.451465  Biso 1.000000     H
    H   1.0     0.164309     0.452401     0.452406  Biso 1.000000     H
    H   1.0     0.452428     0.164240     0.452391  Biso 1.000000     H
    H   1.0     0.451395     0.932132     0.451376  Biso 1.000000     H
    H   1.0     0.931866     0.451788     0.164264  Biso 1.000000     H
    H   1.0     0.164332     0.451691     0.931993  Biso 1.000000     H
    H   1.0     0.548605     0.548621     0.067830  Biso 1.000000     H
    H   1.0     0.547577     0.547578     0.835757  Biso 1.000000     H
    H   1.0     0.835675     0.068010     0.548281  Biso 1.000000     H
    H   1.0     0.068125     0.835707     0.548212  Biso 1.000000     H
    H   1.0     0.068136     0.548177     0.835739  Biso 1.000000     H
    H   1.0     0.835670     0.548275     0.068010  Biso 1.000000     H
    H   1.0     0.548608     0.067833     0.548625  Biso 1.000000     H
    H   1.0     0.547576     0.835725     0.547609  Biso 1.000000     H
    H   1.0     0.835692     0.547567     0.547594  Biso 1.000000     H
    H   1.0     0.068016     0.548513     0.548536  Biso 1.000000     H
    H   1.0     0.548185     0.068120     0.835733  Biso 1.000000     H
    H   1.0     0.548185     0.835707     0.068123  Biso 1.000000     H
    C   1.0     0.473079     0.473029     0.961121  Biso 1.000000     C
    C   1.0     0.473647     0.473619     0.092294  Biso 1.000000     C
    C   1.0     0.960935     0.092300     0.473298  Biso 1.000000     C
    C   1.0     0.092345     0.960964     0.473261  Biso 1.000000     C
    C   1.0     0.473306     0.960920     0.092308  Biso 1.000000     C
    C   1.0     0.473311     0.092297     0.960949  Biso 1.000000     C
    C   1.0     0.961028     0.473089     0.473103  Biso 1.000000     C
    C   1.0     0.092331     0.473623     0.473633  Biso 1.000000     C
    C   1.0     0.473650     0.092288     0.473629  Biso 1.000000     C
    C   1.0     0.473074     0.961085     0.473059  Biso 1.000000     C
    C   1.0     0.960927     0.473291     0.092306  Biso 1.000000     C
    C   1.0     0.092349     0.473233     0.961000  Biso 1.000000     C
    C   1.0     0.526926     0.526933     0.038882  Biso 1.000000     C
    C   1.0     0.526358     0.526343     0.907708  Biso 1.000000     C
    C   1.0     0.907657     0.039000     0.526741  Biso 1.000000     C
    C   1.0     0.039067     0.907665     0.526704  Biso 1.000000     C
    C   1.0     0.039074     0.526674     0.907697  Biso 1.000000     C
    C   1.0     0.907652     0.526732     0.039003  Biso 1.000000     C
    C   1.0     0.526930     0.038880     0.526941  Biso 1.000000     C
    C   1.0     0.526355     0.907677     0.526370  Biso 1.000000     C
    C   1.0     0.907670     0.526345     0.526366  Biso 1.000000     C
    C   1.0     0.038973     0.526878     0.526897  Biso 1.000000     C
    C   1.0     0.526695     0.039046     0.907695  Biso 1.000000     C
    C   1.0     0.526691     0.907669     0.039054  Biso 1.000000     C
    C   1.0     0.389041     0.388973     0.111179  Biso 1.000000     C
    C   1.0     0.446360     0.446332     0.053762  Biso 1.000000     C
    C   1.0     0.110923     0.110951     0.388709  Biso 1.000000     C
    C   1.0     0.053617     0.053625     0.446236  Biso 1.000000     C
    C   1.0     0.388811     0.110871     0.110879  Biso 1.000000     C
    C   1.0     0.446269     0.053591     0.053594  Biso 1.000000     C
    C   1.0     0.111098     0.389059     0.389071  Biso 1.000000     C
    C   1.0     0.053728     0.446364     0.446380  Biso 1.000000     C
    C   1.0     0.389043     0.111166     0.388987  Biso 1.000000     C
    C   1.0     0.446371     0.053751     0.446338  Biso 1.000000     C
    C   1.0     0.110914     0.388704     0.110963  Biso 1.000000     C
    C   1.0     0.053610     0.446231     0.053635  Biso 1.000000     C
    C   1.0     0.610961     0.610991     0.888823  Biso 1.000000     C
    C   1.0     0.553645     0.553629     0.946241  Biso 1.000000     C
    C   1.0     0.889078     0.889014     0.611291  Biso 1.000000     C
    C   1.0     0.946385     0.946340     0.553770  Biso 1.000000     C
    C   1.0     0.889087     0.611261     0.889040  Biso 1.000000     C
    C   1.0     0.946392     0.553736     0.946368  Biso 1.000000     C
    C   1.0     0.610960     0.888799     0.611014  Biso 1.000000     C
    C   1.0     0.553631     0.946213     0.553664  Biso 1.000000     C
    C   1.0     0.888903     0.610907     0.610930  Biso 1.000000     C
    C   1.0     0.946273     0.553602     0.553621  Biso 1.000000     C
    C   1.0     0.611192     0.889094     0.889123  Biso 1.000000     C
    C   1.0     0.553732     0.946375     0.946408  Biso 1.000000     C
    O   1.0     0.250024     0.250023     0.250034  Biso 1.000000     O
    O   1.0     0.749978     0.749942     0.749969  Biso 1.000000     O
    O   1.0     0.366814     0.366616     0.071608  Biso 1.000000     O
    O   1.0     0.367073     0.367131     0.194940  Biso 1.000000     O
    O   1.0     0.071352     0.194689     0.366624  Biso 1.000000     O
    O   1.0     0.194687     0.071406     0.366472  Biso 1.000000     O
    O   1.0     0.366653     0.071303     0.194630  Biso 1.000000     O
    O   1.0     0.366647     0.194622     0.071314  Biso 1.000000     O
    O   1.0     0.071473     0.366786     0.366802  Biso 1.000000     O
    O   1.0     0.194900     0.367145     0.367154  Biso 1.000000     O
    O   1.0     0.367079     0.194927     0.367138  Biso 1.000000     O
    O   1.0     0.366823     0.071593     0.366625  Biso 1.000000     O
    O   1.0     0.071343     0.366634     0.194702  Biso 1.000000     O
    O   1.0     0.194678     0.366457     0.071419  Biso 1.000000     O
    O   1.0     0.633188     0.633349     0.928394  Biso 1.000000     O
    O   1.0     0.632930     0.632833     0.805062  Biso 1.000000     O
    O   1.0     0.805315     0.928559     0.633531  Biso 1.000000     O
    O   1.0     0.928649     0.805275     0.633378  Biso 1.000000     O
    O   1.0     0.928659     0.633334     0.805301  Biso 1.000000     O
    O   1.0     0.805323     0.633507     0.928584  Biso 1.000000     O
    O   1.0     0.633176     0.928372     0.633380  Biso 1.000000     O
    O   1.0     0.632924     0.805038     0.632863  Biso 1.000000     O
    O   1.0     0.805101     0.632820     0.632847  Biso 1.000000     O
    O   1.0     0.928529     0.633177     0.633203  Biso 1.000000     O
    O   1.0     0.633350     0.928663     0.805373  Biso 1.000000     O
    O   1.0     0.633354     0.805343     0.928688  Biso 1.000000     O
   Zn   1.0     0.293327     0.293120     0.119635  Biso 1.000000    Zn
   Zn   1.0     0.293643     0.293768     0.293781  Biso 1.000000    Zn
   Zn   1.0     0.119581     0.293320     0.293327  Biso 1.000000    Zn
   Zn   1.0     0.293335     0.119624     0.293128  Biso 1.000000    Zn
   Zn   1.0     0.706674     0.706845     0.880368  Biso 1.000000    Zn
   Zn   1.0     0.706358     0.706197     0.706222  Biso 1.000000    Zn
   Zn   1.0     0.706666     0.880341     0.706875  Biso 1.000000    Zn
   Zn   1.0     0.880421     0.706644     0.706676  Biso 1.000000    Zn
