#======================================================================

# CRYSTAL DATA

#----------------------------------------------------------------------

data_VESTA_phase_1


_pd_phase_name                         MOF
_cell_length_a                         18.41500
_cell_length_b                         18.42400
_cell_length_c                         18.42600
_cell_angle_alpha                      60.20000
_cell_angle_beta                       60.21800
_cell_angle_gamma                      60.21000
_symmetry_space_group_name_H-M         "P 1"
_symmetry_Int_Tables_number            1

loop_
_symmetry_equiv_pos_as_xyz
   "x, y, z"

loop_
   _atom_site_label
   _atom_site_occupancy
   _atom_site_fract_x
   _atom_site_fract_y
   _atom_site_fract_z
   _atom_site_adp_type
   _atom_site_B_iso_or_equiv
   _atom_site_type_symbol
    H   1.0     0.451341     0.451458     0.932148  Biso 1.000000     H
    H   1.0     0.452369     0.452419     0.164236  Biso 1.000000     H
    H   1.0     0.931835     0.164285     0.451835  Biso 1.000000     H
    H   1.0     0.164362     0.931927     0.451771  Biso 1.000000     H
    H   1.0     0.451798     0.931821     0.164278  Biso 1.000000     H
    H   1.0     0.451784     0.164298     0.931947  Biso 1.000000     H
    H   1.0     0.931947     0.451491     0.451498  Biso 1.000000     H
    H   1.0     0.164341     0.452331     0.452375  Biso 1.000000     H
    H   1.0     0.452357     0.164279     0.452333  Biso 1.000000     H
    H   1.0     0.451443     0.932085     0.451424  Biso 1.000000     H
    H   1.0     0.931799     0.451851     0.164261  Biso 1.000000     H
    H   1.0     0.164333     0.451772     0.932007  Biso 1.000000     H
    H   1.0     0.548592     0.548603     0.067832  Biso 1.000000     H
    H   1.0     0.547551     0.547656     0.835745  Biso 1.000000     H
    H   1.0     0.835632     0.068048     0.548227  Biso 1.000000     H
    H   1.0     0.068158     0.835691     0.548170  Biso 1.000000     H
    H   1.0     0.068148     0.548180     0.835740  Biso 1.000000     H
    H   1.0     0.835615     0.548288     0.067994  Biso 1.000000     H
    H   1.0     0.548477     0.067912     0.548634  Biso 1.000000     H
    H   1.0     0.547571     0.835718     0.547716  Biso 1.000000     H
    H   1.0     0.835652     0.547674     0.547591  Biso 1.000000     H
    H   1.0     0.068046     0.548519     0.548463  Biso 1.000000     H
    H   1.0     0.548181     0.068172     0.835759  Biso 1.000000     H
    H   1.0     0.548167     0.835695     0.068091  Biso 1.000000     H
    C   1.0     0.473018     0.473138     0.961092  Biso 1.000000     C
    C   1.0     0.473590     0.473665     0.092285  Biso 1.000000     C
    C   1.0     0.960904     0.092314     0.473327  Biso 1.000000     C
    C   1.0     0.092366     0.960955     0.473296  Biso 1.000000     C
    C   1.0     0.473266     0.960916     0.092321  Biso 1.000000     C
    C   1.0     0.473261     0.092323     0.960991  Biso 1.000000     C
    C   1.0     0.960995     0.473142     0.473098  Biso 1.000000     C
    C   1.0     0.092350     0.473608     0.473584  Biso 1.000000     C
    C   1.0     0.473598     0.092313     0.473601  Biso 1.000000     C
    C   1.0     0.473093     0.961061     0.473097  Biso 1.000000     C
    C   1.0     0.960880     0.473340     0.092305  Biso 1.000000     C
    C   1.0     0.092336     0.473298     0.961004  Biso 1.000000     C
    C   1.0     0.526917     0.526922     0.038889  Biso 1.000000     C
    C   1.0     0.526339     0.526400     0.907696  Biso 1.000000     C
    C   1.0     0.907628     0.039022     0.526704  Biso 1.000000     C
    C   1.0     0.039089     0.907663     0.526676  Biso 1.000000     C
    C   1.0     0.039069     0.526701     0.907696  Biso 1.000000     C
    C   1.0     0.907612     0.526754     0.038997  Biso 1.000000     C
    C   1.0     0.526831     0.038935     0.526958  Biso 1.000000     C
    C   1.0     0.526330     0.907684     0.526450  Biso 1.000000     C
    C   1.0     0.907642     0.526400     0.526379  Biso 1.000000     C
    C   1.0     0.038997     0.526868     0.526864  Biso 1.000000     C
    C   1.0     0.526706     0.039076     0.907716  Biso 1.000000     C
    C   1.0     0.526699     0.907669     0.039045  Biso 1.000000     C
    C   1.0     0.388985     0.389072     0.111142  Biso 1.000000     C
    C   1.0     0.446359     0.446365     0.053732  Biso 1.000000     C
    C   1.0     0.110919     0.110924     0.388802  Biso 1.000000     C
    C   1.0     0.053614     0.053609     0.446262  Biso 1.000000     C
    C   1.0     0.388750     0.110864     0.110932  Biso 1.000000     C
    C   1.0     0.446251     0.053581     0.053633  Biso 1.000000     C
    C   1.0     0.111100     0.389036     0.389054  Biso 1.000000     C
    C   1.0     0.053723     0.446339     0.446387  Biso 1.000000     C
    C   1.0     0.389104     0.111123     0.388929  Biso 1.000000     C
    C   1.0     0.446369     0.053724     0.446338  Biso 1.000000     C
    C   1.0     0.110894     0.388803     0.110962  Biso 1.000000     C
    C   1.0     0.053590     0.446264     0.053636  Biso 1.000000     C
    C   1.0     0.611015     0.610921     0.888839  Biso 1.000000     C
    C   1.0     0.553586     0.553684     0.946249  Biso 1.000000     C
    C   1.0     0.889068     0.889058     0.611193  Biso 1.000000     C
    C   1.0     0.946379     0.946367     0.553738  Biso 1.000000     C
    C   1.0     0.889063     0.611249     0.889033  Biso 1.000000     C
    C   1.0     0.946359     0.553784     0.946364  Biso 1.000000     C
    C   1.0     0.610843     0.888873     0.611105  Biso 1.000000     C
    C   1.0     0.553561     0.946273     0.553712  Biso 1.000000     C
    C   1.0     0.888890     0.610976     0.610906  Biso 1.000000     C
    C   1.0     0.946269     0.553672     0.553574  Biso 1.000000     C
    C   1.0     0.611207     0.889125     0.889106  Biso 1.000000     C
    C   1.0     0.553712     0.946411     0.946403  Biso 1.000000     C
    O   1.0     0.250014     0.250019     0.250027  Biso 1.000000     O
    O   1.0     0.749957     0.749989     0.749966  Biso 1.000000     O
    O   1.0     0.366777     0.366713     0.071573  Biso 1.000000     O
    O   1.0     0.367089     0.367141     0.194903  Biso 1.000000     O
    O   1.0     0.071335     0.194680     0.366533  Biso 1.000000     O
    O   1.0     0.194700     0.071358     0.366704  Biso 1.000000     O
    O   1.0     0.366546     0.071288     0.194677  Biso 1.000000     O
    O   1.0     0.366628     0.194628     0.071379  Biso 1.000000     O
    O   1.0     0.071465     0.366789     0.366788  Biso 1.000000     O
    O   1.0     0.194916     0.367065     0.367153  Biso 1.000000     O
    O   1.0     0.367241     0.194901     0.366938  Biso 1.000000     O
    O   1.0     0.366800     0.071529     0.366692  Biso 1.000000     O
    O   1.0     0.071311     0.366546     0.194699  Biso 1.000000     O
    O   1.0     0.194675     0.366678     0.071416  Biso 1.000000     O
    O   1.0     0.633311     0.633189     0.928411  Biso 1.000000     O
    O   1.0     0.632858     0.632906     0.805078  Biso 1.000000     O
    O   1.0     0.805288     0.928630     0.633238  Biso 1.000000     O
    O   1.0     0.928647     0.805301     0.633511  Biso 1.000000     O
    O   1.0     0.928651     0.633344     0.805296  Biso 1.000000     O
    O   1.0     0.805282     0.633537     0.928573  Biso 1.000000     O
    O   1.0     0.633092     0.928465     0.633400  Biso 1.000000     O
    O   1.0     0.632769     0.805096     0.633028  Biso 1.000000     O
    O   1.0     0.805074     0.632918     0.632836  Biso 1.000000     O
    O   1.0     0.928522     0.633254     0.633144  Biso 1.000000     O
    O   1.0     0.633594     0.928694     0.805361  Biso 1.000000     O
    O   1.0     0.633138     0.805361     0.928662  Biso 1.000000     O
   Zn   1.0     0.293316     0.293197     0.119638  Biso 1.000000    Zn
   Zn   1.0     0.293700     0.293742     0.293691  Biso 1.000000    Zn
   Zn   1.0     0.119547     0.293311     0.293315  Biso 1.000000    Zn
   Zn   1.0     0.293315     0.119601     0.293195  Biso 1.000000    Zn
   Zn   1.0     0.706640     0.706830     0.880354  Biso 1.000000    Zn
   Zn   1.0     0.706299     0.706254     0.706285  Biso 1.000000    Zn
   Zn   1.0     0.706658     0.880409     0.706818  Biso 1.000000    Zn
   Zn   1.0     0.880424     0.706679     0.706674  Biso 1.000000    Zn
