#======================================================================

# CRYSTAL DATA

#----------------------------------------------------------------------

data_VESTA_phase_1


_pd_phase_name                         MOF
_cell_length_a                         18.40700
_cell_length_b                         18.41200
_cell_length_c                         18.41300
_cell_angle_alpha                      60.29000
_cell_angle_beta                       60.26200
_cell_angle_gamma                      60.25800
_symmetry_space_group_name_H-M         "P 1"
_symmetry_Int_Tables_number            1

loop_
_symmetry_equiv_pos_as_xyz
   "x, y, z"

loop_
   _atom_site_label
   _atom_site_occupancy
   _atom_site_fract_x
   _atom_site_fract_y
   _atom_site_fract_z
   _atom_site_adp_type
   _atom_site_B_iso_or_equiv
   _atom_site_type_symbol
    H   1.0     0.451367     0.451359     0.932037  Biso 1.000000     H
    H   1.0     0.452446     0.452411     0.164223  Biso 1.000000     H
    H   1.0     0.931831     0.164248     0.451902  Biso 1.000000     H
    H   1.0     0.164357     0.931941     0.451806  Biso 1.000000     H
    H   1.0     0.451828     0.931989     0.164234  Biso 1.000000     H
    H   1.0     0.451804     0.164244     0.932062  Biso 1.000000     H
    H   1.0     0.931915     0.451410     0.451424  Biso 1.000000     H
    H   1.0     0.164338     0.452342     0.452350  Biso 1.000000     H
    H   1.0     0.452425     0.164237     0.452419  Biso 1.000000     H
    H   1.0     0.451395     0.931967     0.451386  Biso 1.000000     H
    H   1.0     0.931829     0.451899     0.164235  Biso 1.000000     H
    H   1.0     0.164357     0.451771     0.932018  Biso 1.000000     H
    H   1.0     0.548621     0.548606     0.067979  Biso 1.000000     H
    H   1.0     0.547541     0.547554     0.835793  Biso 1.000000     H
    H   1.0     0.835624     0.068027     0.548214  Biso 1.000000     H
    H   1.0     0.068151     0.835720     0.548118  Biso 1.000000     H
    H   1.0     0.068154     0.548073     0.835783  Biso 1.000000     H
    H   1.0     0.835625     0.548199     0.067999  Biso 1.000000     H
    H   1.0     0.548589     0.068001     0.548629  Biso 1.000000     H
    H   1.0     0.547561     0.835731     0.547594  Biso 1.000000     H
    H   1.0     0.835645     0.547632     0.547661  Biso 1.000000     H
    H   1.0     0.068068     0.548564     0.548586  Biso 1.000000     H
    H   1.0     0.548154     0.067980     0.835785  Biso 1.000000     H
    H   1.0     0.548183     0.835724     0.067958  Biso 1.000000     H
    C   1.0     0.473031     0.473021     0.961090  Biso 1.000000     C
    C   1.0     0.473682     0.473655     0.092279  Biso 1.000000     C
    C   1.0     0.960886     0.092295     0.473374  Biso 1.000000     C
    C   1.0     0.092361     0.960954     0.473320  Biso 1.000000     C
    C   1.0     0.473332     0.960970     0.092290  Biso 1.000000     C
    C   1.0     0.473314     0.092292     0.961033  Biso 1.000000     C
    C   1.0     0.961004     0.473051     0.473071  Biso 1.000000     C
    C   1.0     0.092345     0.473614     0.473629  Biso 1.000000     C
    C   1.0     0.473651     0.092285     0.473684  Biso 1.000000     C
    C   1.0     0.473032     0.961031     0.473064  Biso 1.000000     C
    C   1.0     0.960883     0.473350     0.092290  Biso 1.000000     C
    C   1.0     0.092361     0.473275     0.961017  Biso 1.000000     C
    C   1.0     0.526955     0.526946     0.038926  Biso 1.000000     C
    C   1.0     0.526304     0.526311     0.907737  Biso 1.000000     C
    C   1.0     0.907620     0.039014     0.526699  Biso 1.000000     C
    C   1.0     0.039095     0.907673     0.526645  Biso 1.000000     C
    C   1.0     0.039100     0.526621     0.907727  Biso 1.000000     C
    C   1.0     0.907622     0.526696     0.039000  Biso 1.000000     C
    C   1.0     0.526953     0.038937     0.526950  Biso 1.000000     C
    C   1.0     0.526334     0.907683     0.526330  Biso 1.000000     C
    C   1.0     0.907638     0.526359     0.526384  Biso 1.000000     C
    C   1.0     0.038979     0.526920     0.526942  Biso 1.000000     C
    C   1.0     0.526654     0.038998     0.907729  Biso 1.000000     C
    C   1.0     0.526672     0.907676     0.038987  Biso 1.000000     C
    C   1.0     0.389082     0.389000     0.111019  Biso 1.000000     C
    C   1.0     0.446364     0.446353     0.053704  Biso 1.000000     C
    C   1.0     0.110884     0.110887     0.388834  Biso 1.000000     C
    C   1.0     0.053592     0.053602     0.446314  Biso 1.000000     C
    C   1.0     0.388797     0.110934     0.110946  Biso 1.000000     C
    C   1.0     0.446303     0.053611     0.053621  Biso 1.000000     C
    C   1.0     0.111081     0.388984     0.388967  Biso 1.000000     C
    C   1.0     0.053724     0.446326     0.446347  Biso 1.000000     C
    C   1.0     0.389059     0.111013     0.389028  Biso 1.000000     C
    C   1.0     0.446394     0.053696     0.446334  Biso 1.000000     C
    C   1.0     0.110882     0.388802     0.110901  Biso 1.000000     C
    C   1.0     0.053589     0.446329     0.053613  Biso 1.000000     C
    C   1.0     0.610893     0.610977     0.888998  Biso 1.000000     C
    C   1.0     0.553626     0.553610     0.946312  Biso 1.000000     C
    C   1.0     0.889097     0.889081     0.611180  Biso 1.000000     C
    C   1.0     0.946389     0.946366     0.553707  Biso 1.000000     C
    C   1.0     0.889100     0.611169     0.889117  Biso 1.000000     C
    C   1.0     0.946394     0.553640     0.946405  Biso 1.000000     C
    C   1.0     0.610925     0.888956     0.610986  Biso 1.000000     C
    C   1.0     0.553591     0.946272     0.553680  Biso 1.000000     C
    C   1.0     0.888902     0.610977     0.611057  Biso 1.000000     C
    C   1.0     0.946260     0.553650     0.553662  Biso 1.000000     C
    C   1.0     0.611193     0.889034     0.889073  Biso 1.000000     C
    C   1.0     0.553679     0.946357     0.946398  Biso 1.000000     C
    O   1.0     0.250000     0.249993     0.250003  Biso 1.000000     O
    O   1.0     0.749982     0.749975     0.750014  Biso 1.000000     O
    O   1.0     0.366668     0.366801     0.071400  Biso 1.000000     O
    O   1.0     0.367292     0.366988     0.194782  Biso 1.000000     O
    O   1.0     0.071299     0.194617     0.366535  Biso 1.000000     O
    O   1.0     0.194662     0.071333     0.366713  Biso 1.000000     O
    O   1.0     0.366615     0.071397     0.194654  Biso 1.000000     O
    O   1.0     0.366612     0.194652     0.071418  Biso 1.000000     O
    O   1.0     0.071426     0.366687     0.366692  Biso 1.000000     O
    O   1.0     0.194897     0.367058     0.367035  Biso 1.000000     O
    O   1.0     0.367286     0.194785     0.366989  Biso 1.000000     O
    O   1.0     0.366686     0.071389     0.366794  Biso 1.000000     O
    O   1.0     0.071300     0.366526     0.194621  Biso 1.000000     O
    O   1.0     0.194658     0.366721     0.071353  Biso 1.000000     O
    O   1.0     0.633311     0.633172     0.928616  Biso 1.000000     O
    O   1.0     0.632691     0.632981     0.805234  Biso 1.000000     O
    O   1.0     0.805320     0.928635     0.633306  Biso 1.000000     O
    O   1.0     0.928683     0.805351     0.633476  Biso 1.000000     O
    O   1.0     0.928682     0.633454     0.805397  Biso 1.000000     O
    O   1.0     0.805324     0.633236     0.928665  Biso 1.000000     O
    O   1.0     0.633292     0.928580     0.633227  Biso 1.000000     O
    O   1.0     0.632704     0.805183     0.633020  Biso 1.000000     O
    O   1.0     0.805087     0.632911     0.632981  Biso 1.000000     O
    O   1.0     0.928558     0.633276     0.633331  Biso 1.000000     O
    O   1.0     0.633362     0.928572     0.805365  Biso 1.000000     O
    O   1.0     0.633381     0.805317     0.928600  Biso 1.000000     O
   Zn   1.0     0.293177     0.293264     0.119668  Biso 1.000000    Zn
   Zn   1.0     0.293928     0.293659     0.293644  Biso 1.000000    Zn
   Zn   1.0     0.119556     0.293153     0.293157  Biso 1.000000    Zn
   Zn   1.0     0.293183     0.119640     0.293268  Biso 1.000000    Zn
   Zn   1.0     0.706806     0.706705     0.880349  Biso 1.000000    Zn
   Zn   1.0     0.706055     0.706310     0.706372  Biso 1.000000    Zn
   Zn   1.0     0.706798     0.880329     0.706751  Biso 1.000000    Zn
   Zn   1.0     0.880426     0.706815     0.706861  Biso 1.000000    Zn
