#======================================================================

# CRYSTAL DATA

#----------------------------------------------------------------------

data_VESTA_phase_1


_pd_phase_name                         MOF
_cell_length_a                         18.41700
_cell_length_b                         18.42100
_cell_length_c                         18.42300
_cell_angle_alpha                      60.23200
_cell_angle_beta                       60.21300
_cell_angle_gamma                      60.20600
_symmetry_space_group_name_H-M         "P 1"
_symmetry_Int_Tables_number            1

loop_
_symmetry_equiv_pos_as_xyz
   "x, y, z"

loop_
   _atom_site_label
   _atom_site_occupancy
   _atom_site_fract_x
   _atom_site_fract_y
   _atom_site_fract_z
   _atom_site_adp_type
   _atom_site_B_iso_or_equiv
   _atom_site_type_symbol
    H   1.0     0.451481     0.451466     0.932001  Biso 1.000000     H
    H   1.0     0.452355     0.452332     0.164247  Biso 1.000000     H
    H   1.0     0.931840     0.164286     0.451896  Biso 1.000000     H
    H   1.0     0.164357     0.931896     0.451834  Biso 1.000000     H
    H   1.0     0.451873     0.931918     0.164254  Biso 1.000000     H
    H   1.0     0.451841     0.164281     0.931990  Biso 1.000000     H
    H   1.0     0.931907     0.451521     0.451524  Biso 1.000000     H
    H   1.0     0.164342     0.452277     0.452281  Biso 1.000000     H
    H   1.0     0.452333     0.164275     0.452325  Biso 1.000000     H
    H   1.0     0.451495     0.931937     0.451505  Biso 1.000000     H
    H   1.0     0.931834     0.451903     0.164258  Biso 1.000000     H
    H   1.0     0.164362     0.451798     0.931967  Biso 1.000000     H
    H   1.0     0.548524     0.548514     0.068010  Biso 1.000000     H
    H   1.0     0.547650     0.547648     0.835764  Biso 1.000000     H
    H   1.0     0.835647     0.068088     0.548176  Biso 1.000000     H
    H   1.0     0.068163     0.835697     0.548114  Biso 1.000000     H
    H   1.0     0.068169     0.548076     0.835754  Biso 1.000000     H
    H   1.0     0.835641     0.548181     0.068045  Biso 1.000000     H
    H   1.0     0.548500     0.068046     0.548515  Biso 1.000000     H
    H   1.0     0.547662     0.835708     0.547696  Biso 1.000000     H
    H   1.0     0.835661     0.547715     0.547721  Biso 1.000000     H
    H   1.0     0.068097     0.548471     0.548478  Biso 1.000000     H
    H   1.0     0.548137     0.068065     0.835757  Biso 1.000000     H
    H   1.0     0.548168     0.835702     0.068020  Biso 1.000000     H
    C   1.0     0.473111     0.473100     0.961045  Biso 1.000000     C
    C   1.0     0.473615     0.473600     0.092294  Biso 1.000000     C
    C   1.0     0.960917     0.092317     0.473353  Biso 1.000000     C
    C   1.0     0.092357     0.960942     0.473318  Biso 1.000000     C
    C   1.0     0.473335     0.960952     0.092300  Biso 1.000000     C
    C   1.0     0.473322     0.092313     0.961002  Biso 1.000000     C
    C   1.0     0.960994     0.473129     0.473133  Biso 1.000000     C
    C   1.0     0.092346     0.473567     0.473571  Biso 1.000000     C
    C   1.0     0.473609     0.092308     0.473596  Biso 1.000000     C
    C   1.0     0.473121     0.960999     0.473122  Biso 1.000000     C
    C   1.0     0.960910     0.473354     0.092303  Biso 1.000000     C
    C   1.0     0.092362     0.473295     0.960991  Biso 1.000000     C
    C   1.0     0.526892     0.526883     0.038967  Biso 1.000000     C
    C   1.0     0.526388     0.526383     0.907717  Biso 1.000000     C
    C   1.0     0.907647     0.039041     0.526692  Biso 1.000000     C
    C   1.0     0.039087     0.907666     0.526657  Biso 1.000000     C
    C   1.0     0.039093     0.526629     0.907709  Biso 1.000000     C
    C   1.0     0.907641     0.526688     0.039021  Biso 1.000000     C
    C   1.0     0.526883     0.038983     0.526890  Biso 1.000000     C
    C   1.0     0.526394     0.907675     0.526416  Biso 1.000000     C
    C   1.0     0.907658     0.526418     0.526438  Biso 1.000000     C
    C   1.0     0.039010     0.526856     0.526876  Biso 1.000000     C
    C   1.0     0.526670     0.039031     0.907710  Biso 1.000000     C
    C   1.0     0.526682     0.907670     0.039008  Biso 1.000000     C
    C   1.0     0.389069     0.389019     0.111021  Biso 1.000000     C
    C   1.0     0.446377     0.446354     0.053680  Biso 1.000000     C
    C   1.0     0.110903     0.110902     0.388867  Biso 1.000000     C
    C   1.0     0.053604     0.053604     0.446331  Biso 1.000000     C
    C   1.0     0.388862     0.110923     0.110938  Biso 1.000000     C
    C   1.0     0.446328     0.053611     0.053620  Biso 1.000000     C
    C   1.0     0.111058     0.389003     0.388996  Biso 1.000000     C
    C   1.0     0.053695     0.446347     0.446345  Biso 1.000000     C
    C   1.0     0.389077     0.111017     0.389010  Biso 1.000000     C
    C   1.0     0.446374     0.053676     0.446365  Biso 1.000000     C
    C   1.0     0.110896     0.388864     0.110912  Biso 1.000000     C
    C   1.0     0.053596     0.446321     0.053612  Biso 1.000000     C
    C   1.0     0.610932     0.610965     0.888991  Biso 1.000000     C
    C   1.0     0.553629     0.553626     0.946331  Biso 1.000000     C
    C   1.0     0.889101     0.889081     0.611144  Biso 1.000000     C
    C   1.0     0.946400     0.946379     0.553679  Biso 1.000000     C
    C   1.0     0.889107     0.611122     0.889100  Biso 1.000000     C
    C   1.0     0.946407     0.553659     0.946400  Biso 1.000000     C
    C   1.0     0.610933     0.888965     0.610995  Biso 1.000000     C
    C   1.0     0.553620     0.946306     0.553656  Biso 1.000000     C
    C   1.0     0.888946     0.610974     0.611021  Biso 1.000000     C
    C   1.0     0.946309     0.553645     0.553657  Biso 1.000000     C
    C   1.0     0.611137     0.889059     0.889073  Biso 1.000000     C
    C   1.0     0.553681     0.946372     0.946391  Biso 1.000000     C
    O   1.0     0.250005     0.249997     0.250003  Biso 1.000000     O
    O   1.0     0.749999     0.749986     0.750008  Biso 1.000000     O
    O   1.0     0.366731     0.366828     0.071404  Biso 1.000000     O
    O   1.0     0.367212     0.367009     0.194792  Biso 1.000000     O
    O   1.0     0.071311     0.194656     0.366609  Biso 1.000000     O
    O   1.0     0.194691     0.071332     0.366747  Biso 1.000000     O
    O   1.0     0.366681     0.071368     0.194669  Biso 1.000000     O
    O   1.0     0.366688     0.194670     0.071395  Biso 1.000000     O
    O   1.0     0.071401     0.366761     0.366750  Biso 1.000000     O
    O   1.0     0.194876     0.367061     0.367027  Biso 1.000000     O
    O   1.0     0.367225     0.194804     0.366979  Biso 1.000000     O
    O   1.0     0.366758     0.071387     0.366814  Biso 1.000000     O
    O   1.0     0.071309     0.366611     0.194650  Biso 1.000000     O
    O   1.0     0.194682     0.366758     0.071358  Biso 1.000000     O
    O   1.0     0.633273     0.633154     0.928607  Biso 1.000000     O
    O   1.0     0.632787     0.632978     0.805220  Biso 1.000000     O
    O   1.0     0.805313     0.928652     0.633265  Biso 1.000000     O
    O   1.0     0.928693     0.805327     0.633400  Biso 1.000000     O
    O   1.0     0.928694     0.633375     0.805362  Biso 1.000000     O
    O   1.0     0.805321     0.633228     0.928654  Biso 1.000000     O
    O   1.0     0.633254     0.928596     0.633189  Biso 1.000000     O
    O   1.0     0.632785     0.805179     0.633026  Biso 1.000000     O
    O   1.0     0.805128     0.632915     0.632991  Biso 1.000000     O
    O   1.0     0.928603     0.633217     0.633267  Biso 1.000000     O
    O   1.0     0.633320     0.928614     0.805341  Biso 1.000000     O
    O   1.0     0.633309     0.805313     0.928616  Biso 1.000000     O
   Zn   1.0     0.293263     0.293300     0.119624  Biso 1.000000    Zn
   Zn   1.0     0.293821     0.293656     0.293623  Biso 1.000000    Zn
   Zn   1.0     0.119534     0.293248     0.293240  Biso 1.000000    Zn
   Zn   1.0     0.293274     0.119589     0.293297  Biso 1.000000    Zn
   Zn   1.0     0.706740     0.706683     0.880387  Biso 1.000000    Zn
   Zn   1.0     0.706183     0.706326     0.706388  Biso 1.000000    Zn
   Zn   1.0     0.706731     0.880394     0.706713  Biso 1.000000    Zn
   Zn   1.0     0.880470     0.706735     0.706772  Biso 1.000000    Zn
