#======================================================================

# CRYSTAL DATA

#----------------------------------------------------------------------

data_VESTA_phase_1


_pd_phase_name                         MOF
_cell_length_a                         18.42500
_cell_length_b                         18.43000
_cell_length_c                         18.43100
_cell_angle_alpha                      60.15100
_cell_angle_beta                       60.16300
_cell_angle_gamma                      60.16100
_symmetry_space_group_name_H-M         "P 1"
_symmetry_Int_Tables_number            1

loop_
_symmetry_equiv_pos_as_xyz
   "x, y, z"

loop_
   _atom_site_label
   _atom_site_occupancy
   _atom_site_fract_x
   _atom_site_fract_y
   _atom_site_fract_z
   _atom_site_adp_type
   _atom_site_B_iso_or_equiv
   _atom_site_type_symbol
    H   1.0     0.451800     0.451265     0.932002  Biso 1.000000     H
    H   1.0     0.451942     0.452546     0.164317  Biso 1.000000     H
    H   1.0     0.931842     0.164343     0.452083  Biso 1.000000     H
    H   1.0     0.164359     0.931838     0.451552  Biso 1.000000     H
    H   1.0     0.451824     0.931868     0.164336  Biso 1.000000     H
    H   1.0     0.451802     0.164340     0.931806  Biso 1.000000     H
    H   1.0     0.931882     0.451597     0.451580  Biso 1.000000     H
    H   1.0     0.164352     0.452194     0.452292  Biso 1.000000     H
    H   1.0     0.451948     0.164326     0.452545  Biso 1.000000     H
    H   1.0     0.451828     0.931987     0.451248  Biso 1.000000     H
    H   1.0     0.931839     0.452115     0.164334  Biso 1.000000     H
    H   1.0     0.164364     0.451505     0.931862  Biso 1.000000     H
    H   1.0     0.548168     0.548720     0.067994  Biso 1.000000     H
    H   1.0     0.548026     0.547438     0.835679  Biso 1.000000     H
    H   1.0     0.835607     0.068148     0.548443  Biso 1.000000     H
    H   1.0     0.068125     0.835643     0.547912  Biso 1.000000     H
    H   1.0     0.068127     0.547870     0.835663  Biso 1.000000     H
    H   1.0     0.835602     0.548480     0.068135  Biso 1.000000     H
    H   1.0     0.548138     0.068000     0.548749  Biso 1.000000     H
    H   1.0     0.548017     0.835660     0.547452  Biso 1.000000     H
    H   1.0     0.835614     0.547794     0.547702  Biso 1.000000     H
    H   1.0     0.068084     0.548391     0.548415  Biso 1.000000     H
    H   1.0     0.548148     0.068119     0.835661  Biso 1.000000     H
    H   1.0     0.548169     0.835646     0.068190  Biso 1.000000     H
    C   1.0     0.473295     0.472990     0.961024  Biso 1.000000     C
    C   1.0     0.473378     0.473712     0.092335  Biso 1.000000     C
    C   1.0     0.960905     0.092349     0.473462  Biso 1.000000     C
    C   1.0     0.092355     0.960911     0.473165  Biso 1.000000     C
    C   1.0     0.473307     0.960929     0.092345  Biso 1.000000     C
    C   1.0     0.473297     0.092347     0.960900  Biso 1.000000     C
    C   1.0     0.960960     0.473169     0.473171  Biso 1.000000     C
    C   1.0     0.092350     0.473510     0.473578  Biso 1.000000     C
    C   1.0     0.473385     0.092339     0.473709  Biso 1.000000     C
    C   1.0     0.473306     0.961016     0.472981  Biso 1.000000     C
    C   1.0     0.960900     0.473478     0.092345  Biso 1.000000     C
    C   1.0     0.092360     0.473139     0.960924  Biso 1.000000     C
    C   1.0     0.526672     0.526996     0.038972  Biso 1.000000     C
    C   1.0     0.526589     0.526274     0.907661  Biso 1.000000     C
    C   1.0     0.907611     0.039075     0.526831  Biso 1.000000     C
    C   1.0     0.039062     0.907637     0.526534  Biso 1.000000     C
    C   1.0     0.039066     0.526508     0.907651  Biso 1.000000     C
    C   1.0     0.907606     0.526848     0.039073  Biso 1.000000     C
    C   1.0     0.526662     0.038971     0.527013  Biso 1.000000     C
    C   1.0     0.526584     0.907648     0.526284  Biso 1.000000     C
    C   1.0     0.907616     0.526475     0.526420  Biso 1.000000     C
    C   1.0     0.039007     0.526815     0.526826  Biso 1.000000     C
    C   1.0     0.526657     0.039057     0.907651  Biso 1.000000     C
    C   1.0     0.526667     0.907639     0.039096  Biso 1.000000     C
    C   1.0     0.389001     0.389047     0.111077  Biso 1.000000     C
    C   1.0     0.446342     0.446365     0.053707  Biso 1.000000     C
    C   1.0     0.110943     0.110907     0.388796  Biso 1.000000     C
    C   1.0     0.053625     0.053604     0.446280  Biso 1.000000     C
    C   1.0     0.388830     0.110933     0.110872  Biso 1.000000     C
    C   1.0     0.446283     0.053624     0.053585  Biso 1.000000     C
    C   1.0     0.111053     0.389020     0.389058  Biso 1.000000     C
    C   1.0     0.053696     0.446338     0.446386  Biso 1.000000     C
    C   1.0     0.389042     0.111088     0.389000  Biso 1.000000     C
    C   1.0     0.446359     0.053714     0.446348  Biso 1.000000     C
    C   1.0     0.110937     0.388815     0.110903  Biso 1.000000     C
    C   1.0     0.053620     0.446279     0.053603  Biso 1.000000     C
    C   1.0     0.610967     0.610937     0.888920  Biso 1.000000     C
    C   1.0     0.553626     0.553619     0.946289  Biso 1.000000     C
    C   1.0     0.889023     0.889079     0.611199  Biso 1.000000     C
    C   1.0     0.946341     0.946382     0.553715  Biso 1.000000     C
    C   1.0     0.889029     0.611169     0.889093  Biso 1.000000     C
    C   1.0     0.946346     0.553704     0.946394  Biso 1.000000     C
    C   1.0     0.610921     0.888898     0.611000  Biso 1.000000     C
    C   1.0     0.553603     0.946273     0.553653  Biso 1.000000     C
    C   1.0     0.888913     0.610970     0.610935  Biso 1.000000     C
    C   1.0     0.946270     0.553653     0.553606  Biso 1.000000     C
    C   1.0     0.611145     0.889053     0.889125  Biso 1.000000     C
    C   1.0     0.553694     0.946363     0.946411  Biso 1.000000     C
    O   1.0     0.250012     0.250008     0.249990  Biso 1.000000     O
    O   1.0     0.749955     0.749978     0.750006  Biso 1.000000     O
    O   1.0     0.366741     0.366845     0.071467  Biso 1.000000     O
    O   1.0     0.367039     0.367078     0.194868  Biso 1.000000     O
    O   1.0     0.071348     0.194689     0.366573  Biso 1.000000     O
    O   1.0     0.194736     0.071310     0.366680  Biso 1.000000     O
    O   1.0     0.366676     0.071344     0.194653  Biso 1.000000     O
    O   1.0     0.366651     0.194719     0.071272  Biso 1.000000     O
    O   1.0     0.071422     0.366826     0.366800  Biso 1.000000     O
    O   1.0     0.194872     0.367031     0.367101  Biso 1.000000     O
    O   1.0     0.367186     0.194887     0.366919  Biso 1.000000     O
    O   1.0     0.366711     0.071478     0.366867  Biso 1.000000     O
    O   1.0     0.071346     0.366562     0.194678  Biso 1.000000     O
    O   1.0     0.194728     0.366760     0.071305  Biso 1.000000     O
    O   1.0     0.633223     0.633144     0.928529  Biso 1.000000     O
    O   1.0     0.632927     0.632909     0.805128  Biso 1.000000     O
    O   1.0     0.805230     0.928677     0.633314  Biso 1.000000     O
    O   1.0     0.928619     0.805297     0.633425  Biso 1.000000     O
    O   1.0     0.928620     0.633427     0.805318  Biso 1.000000     O
    O   1.0     0.805238     0.633227     0.928691  Biso 1.000000     O
    O   1.0     0.633258     0.928509     0.633126  Biso 1.000000     O
    O   1.0     0.632785     0.805100     0.633072  Biso 1.000000     O
    O   1.0     0.805094     0.632952     0.632899  Biso 1.000000     O
    O   1.0     0.928544     0.633155     0.633201  Biso 1.000000     O
    O   1.0     0.633284     0.928642     0.805343  Biso 1.000000     O
    O   1.0     0.633305     0.805267     0.928724  Biso 1.000000     O
   Zn   1.0     0.293347     0.293291     0.119536  Biso 1.000000    Zn
   Zn   1.0     0.293632     0.293671     0.293644  Biso 1.000000    Zn
   Zn   1.0     0.119528     0.293348     0.293329  Biso 1.000000    Zn
   Zn   1.0     0.293358     0.119548     0.293265  Biso 1.000000    Zn
   Zn   1.0     0.706619     0.706695     0.880460  Biso 1.000000    Zn
   Zn   1.0     0.706334     0.706315     0.706352  Biso 1.000000    Zn
   Zn   1.0     0.706609     0.880439     0.706731  Biso 1.000000    Zn
   Zn   1.0     0.880439     0.706638     0.706668  Biso 1.000000    Zn
