#======================================================================

# CRYSTAL DATA

#----------------------------------------------------------------------

data_VESTA_phase_1


_pd_phase_name                         MOF
_cell_length_a                         18.41100
_cell_length_b                         18.41800
_cell_length_c                         18.42000
_cell_angle_alpha                      60.24800
_cell_angle_beta                       60.24100
_cell_angle_gamma                      60.23800
_symmetry_space_group_name_H-M         "P 1"
_symmetry_Int_Tables_number            1

loop_
_symmetry_equiv_pos_as_xyz
   "x, y, z"

loop_
   _atom_site_label
   _atom_site_occupancy
   _atom_site_fract_x
   _atom_site_fract_y
   _atom_site_fract_z
   _atom_site_adp_type
   _atom_site_B_iso_or_equiv
   _atom_site_type_symbol
    H   1.0     0.451365     0.451318     0.932206  Biso 1.000000     H
    H   1.0     0.452527     0.452421     0.164221  Biso 1.000000     H
    H   1.0     0.931859     0.164255     0.451814  Biso 1.000000     H
    H   1.0     0.164350     0.931967     0.451749  Biso 1.000000     H
    H   1.0     0.451834     0.931930     0.164238  Biso 1.000000     H
    H   1.0     0.451770     0.164249     0.932003  Biso 1.000000     H
    H   1.0     0.932045     0.451425     0.451416  Biso 1.000000     H
    H   1.0     0.164328     0.452429     0.452387  Biso 1.000000     H
    H   1.0     0.452478     0.164238     0.452436  Biso 1.000000     H
    H   1.0     0.451394     0.932149     0.451337  Biso 1.000000     H
    H   1.0     0.931848     0.451831     0.164240  Biso 1.000000     H
    H   1.0     0.164361     0.451712     0.932024  Biso 1.000000     H
    H   1.0     0.548684     0.548651     0.067815  Biso 1.000000     H
    H   1.0     0.547524     0.547545     0.835800  Biso 1.000000     H
    H   1.0     0.835664     0.068023     0.548284  Biso 1.000000     H
    H   1.0     0.068154     0.835735     0.548218  Biso 1.000000     H
    H   1.0     0.068178     0.548170     0.835780  Biso 1.000000     H
    H   1.0     0.835664     0.548280     0.067996  Biso 1.000000     H
    H   1.0     0.548641     0.067846     0.548655  Biso 1.000000     H
    H   1.0     0.547561     0.835757     0.547553  Biso 1.000000     H
    H   1.0     0.835692     0.547580     0.547615  Biso 1.000000     H
    H   1.0     0.067975     0.548581     0.548589  Biso 1.000000     H
    H   1.0     0.548194     0.068062     0.835780  Biso 1.000000     H
    H   1.0     0.548268     0.835743     0.068014  Biso 1.000000     H
    C   1.0     0.473070     0.473003     0.961158  Biso 1.000000     C
    C   1.0     0.473730     0.473639     0.092281  Biso 1.000000     C
    C   1.0     0.960926     0.092297     0.473319  Biso 1.000000     C
    C   1.0     0.092356     0.960984     0.473284  Biso 1.000000     C
    C   1.0     0.473342     0.960970     0.092291  Biso 1.000000     C
    C   1.0     0.473309     0.092290     0.961016  Biso 1.000000     C
    C   1.0     0.961075     0.473085     0.473068  Biso 1.000000     C
    C   1.0     0.092341     0.473659     0.473623  Biso 1.000000     C
    C   1.0     0.473689     0.092286     0.473661  Biso 1.000000     C
    C   1.0     0.473070     0.961119     0.473033  Biso 1.000000     C
    C   1.0     0.960920     0.473327     0.092293  Biso 1.000000     C
    C   1.0     0.092367     0.473258     0.961024  Biso 1.000000     C
    C   1.0     0.526994     0.526949     0.038863  Biso 1.000000     C
    C   1.0     0.526336     0.526312     0.907741  Biso 1.000000     C
    C   1.0     0.907657     0.039006     0.526750  Biso 1.000000     C
    C   1.0     0.039087     0.907693     0.526714  Biso 1.000000     C
    C   1.0     0.039105     0.526674     0.907726  Biso 1.000000     C
    C   1.0     0.907658     0.526740     0.038996  Biso 1.000000     C
    C   1.0     0.526981     0.038876     0.526943  Biso 1.000000     C
    C   1.0     0.526364     0.907708     0.526314  Biso 1.000000     C
    C   1.0     0.907678     0.526361     0.526369  Biso 1.000000     C
    C   1.0     0.038945     0.526933     0.526926  Biso 1.000000     C
    C   1.0     0.526693     0.039022     0.907727  Biso 1.000000     C
    C   1.0     0.526730     0.907702     0.039001  Biso 1.000000     C
    C   1.0     0.389099     0.388983     0.111158  Biso 1.000000     C
    C   1.0     0.446376     0.446361     0.053767  Biso 1.000000     C
    C   1.0     0.110902     0.110915     0.388713  Biso 1.000000     C
    C   1.0     0.053601     0.053611     0.446237  Biso 1.000000     C
    C   1.0     0.388761     0.110902     0.110933  Biso 1.000000     C
    C   1.0     0.446253     0.053600     0.053619  Biso 1.000000     C
    C   1.0     0.111154     0.389045     0.388993  Biso 1.000000     C
    C   1.0     0.053760     0.446353     0.446362  Biso 1.000000     C
    C   1.0     0.389095     0.111142     0.388987  Biso 1.000000     C
    C   1.0     0.446374     0.053753     0.446364  Biso 1.000000     C
    C   1.0     0.110893     0.388729     0.110932  Biso 1.000000     C
    C   1.0     0.053594     0.446238     0.053626  Biso 1.000000     C
    C   1.0     0.610946     0.610988     0.888863  Biso 1.000000     C
    C   1.0     0.553621     0.553659     0.946254  Biso 1.000000     C
    C   1.0     0.889112     0.889074     0.611306  Biso 1.000000     C
    C   1.0     0.946413     0.946379     0.553786  Biso 1.000000     C
    C   1.0     0.889130     0.611263     0.889089  Biso 1.000000     C
    C   1.0     0.946431     0.553747     0.946394  Biso 1.000000     C
    C   1.0     0.610953     0.888852     0.610993  Biso 1.000000     C
    C   1.0     0.553621     0.946241     0.553669  Biso 1.000000     C
    C   1.0     0.888866     0.610963     0.611011  Biso 1.000000     C
    C   1.0     0.946259     0.553618     0.553678  Biso 1.000000     C
    C   1.0     0.611285     0.889092     0.889082  Biso 1.000000     C
    C   1.0     0.553775     0.946392     0.946398  Biso 1.000000     C
    O   1.0     0.250028     0.250024     0.250036  Biso 1.000000     O
    O   1.0     0.749990     0.749968     0.749982  Biso 1.000000     O
    O   1.0     0.366685     0.366777     0.071589  Biso 1.000000     O
    O   1.0     0.367292     0.367011     0.194910  Biso 1.000000     O
    O   1.0     0.071323     0.194654     0.366449  Biso 1.000000     O
    O   1.0     0.194681     0.071364     0.366596  Biso 1.000000     O
    O   1.0     0.366605     0.071352     0.194658  Biso 1.000000     O
    O   1.0     0.366577     0.194641     0.071402  Biso 1.000000     O
    O   1.0     0.071533     0.366731     0.366733  Biso 1.000000     O
    O   1.0     0.194961     0.367137     0.367070  Biso 1.000000     O
    O   1.0     0.367261     0.194907     0.367031  Biso 1.000000     O
    O   1.0     0.366699     0.071562     0.366774  Biso 1.000000     O
    O   1.0     0.071314     0.366471     0.194658  Biso 1.000000     O
    O   1.0     0.194671     0.366615     0.071392  Biso 1.000000     O
    O   1.0     0.633300     0.633256     0.928430  Biso 1.000000     O
    O   1.0     0.632730     0.632981     0.805111  Biso 1.000000     O
    O   1.0     0.805334     0.928625     0.633426  Biso 1.000000     O
    O   1.0     0.928693     0.805336     0.633552  Biso 1.000000     O
    O   1.0     0.928706     0.633563     0.805363  Biso 1.000000     O
    O   1.0     0.805352     0.633317     0.928631  Biso 1.000000     O
    O   1.0     0.633306     0.928432     0.633248  Biso 1.000000     O
    O   1.0     0.632765     0.805086     0.632972  Biso 1.000000     O
    O   1.0     0.805059     0.632859     0.632945  Biso 1.000000     O
    O   1.0     0.928487     0.633233     0.633315  Biso 1.000000     O
    O   1.0     0.633389     0.928642     0.805357  Biso 1.000000     O
    O   1.0     0.633512     0.805353     0.928612  Biso 1.000000     O
   Zn   1.0     0.293248     0.293224     0.119673  Biso 1.000000    Zn
   Zn   1.0     0.293836     0.293716     0.293702  Biso 1.000000    Zn
   Zn   1.0     0.119572     0.293236     0.293228  Biso 1.000000    Zn
   Zn   1.0     0.293261     0.119639     0.293223  Biso 1.000000    Zn
   Zn   1.0     0.706779     0.706767     0.880345  Biso 1.000000    Zn
   Zn   1.0     0.706180     0.706281     0.706313  Biso 1.000000    Zn
   Zn   1.0     0.706750     0.880352     0.706794  Biso 1.000000    Zn
   Zn   1.0     0.880446     0.706752     0.706794  Biso 1.000000    Zn
