#======================================================================

# CRYSTAL DATA

#----------------------------------------------------------------------

data_VESTA_phase_1


_pd_phase_name                         MOF
_cell_length_a                         18.41900
_cell_length_b                         18.42600
_cell_length_c                         18.42700
_cell_angle_alpha                      60.17900
_cell_angle_beta                       60.19900
_cell_angle_gamma                      60.19200
_symmetry_space_group_name_H-M         "P 1"
_symmetry_Int_Tables_number            1

loop_
_symmetry_equiv_pos_as_xyz
   "x, y, z"

loop_
   _atom_site_label
   _atom_site_occupancy
   _atom_site_fract_x
   _atom_site_fract_y
   _atom_site_fract_z
   _atom_site_adp_type
   _atom_site_B_iso_or_equiv
   _atom_site_type_symbol
    H   1.0     0.451413     0.451523     0.932095  Biso 1.000000     H
    H   1.0     0.452322     0.452372     0.164265  Biso 1.000000     H
    H   1.0     0.931873     0.164298     0.451847  Biso 1.000000     H
    H   1.0     0.164362     0.931882     0.451817  Biso 1.000000     H
    H   1.0     0.451802     0.931800     0.164312  Biso 1.000000     H
    H   1.0     0.451848     0.164312     0.931914  Biso 1.000000     H
    H   1.0     0.931975     0.451521     0.451512  Biso 1.000000     H
    H   1.0     0.164362     0.452297     0.452316  Biso 1.000000     H
    H   1.0     0.452306     0.164294     0.452315  Biso 1.000000     H
    H   1.0     0.451508     0.932022     0.451476  Biso 1.000000     H
    H   1.0     0.931831     0.451867     0.164299  Biso 1.000000     H
    H   1.0     0.164348     0.451806     0.931991  Biso 1.000000     H
    H   1.0     0.548560     0.548540     0.067888  Biso 1.000000     H
    H   1.0     0.547642     0.547701     0.835719  Biso 1.000000     H
    H   1.0     0.835667     0.068068     0.548231  Biso 1.000000     H
    H   1.0     0.068156     0.835652     0.548203  Biso 1.000000     H
    H   1.0     0.068160     0.548179     0.835727  Biso 1.000000     H
    H   1.0     0.835644     0.548260     0.068035  Biso 1.000000     H
    H   1.0     0.548426     0.067948     0.548619  Biso 1.000000     H
    H   1.0     0.547645     0.835675     0.547762  Biso 1.000000     H
    H   1.0     0.835691     0.547715     0.547611  Biso 1.000000     H
    H   1.0     0.068079     0.548493     0.548413  Biso 1.000000     H
    H   1.0     0.548239     0.068168     0.835732  Biso 1.000000     H
    H   1.0     0.548173     0.835655     0.068132  Biso 1.000000     H
    C   1.0     0.473073     0.473155     0.961081  Biso 1.000000     C
    C   1.0     0.473585     0.473639     0.092298  Biso 1.000000     C
    C   1.0     0.960942     0.092317     0.473339  Biso 1.000000     C
    C   1.0     0.092366     0.960926     0.473323  Biso 1.000000     C
    C   1.0     0.473305     0.960893     0.092339  Biso 1.000000     C
    C   1.0     0.473338     0.092328     0.960978  Biso 1.000000     C
    C   1.0     0.961037     0.473135     0.473115  Biso 1.000000     C
    C   1.0     0.092369     0.473578     0.473573  Biso 1.000000     C
    C   1.0     0.473575     0.092316     0.473612  Biso 1.000000     C
    C   1.0     0.473122     0.961031     0.473130  Biso 1.000000     C
    C   1.0     0.960909     0.473356     0.092328  Biso 1.000000     C
    C   1.0     0.092351     0.473318     0.961010  Biso 1.000000     C
    C   1.0     0.526899     0.526908     0.038903  Biso 1.000000     C
    C   1.0     0.526383     0.526428     0.907686  Biso 1.000000     C
    C   1.0     0.907663     0.039025     0.526724  Biso 1.000000     C
    C   1.0     0.039087     0.907633     0.526710  Biso 1.000000     C
    C   1.0     0.039084     0.526696     0.907698  Biso 1.000000     C
    C   1.0     0.907641     0.526742     0.039016  Biso 1.000000     C
    C   1.0     0.526819     0.038938     0.526959  Biso 1.000000     C
    C   1.0     0.526373     0.907652     0.526471  Biso 1.000000     C
    C   1.0     0.907685     0.526435     0.526355  Biso 1.000000     C
    C   1.0     0.039016     0.526878     0.526812  Biso 1.000000     C
    C   1.0     0.526731     0.039075     0.907705  Biso 1.000000     C
    C   1.0     0.526691     0.907639     0.039066  Biso 1.000000     C
    C   1.0     0.389006     0.389062     0.111120  Biso 1.000000     C
    C   1.0     0.446344     0.446392     0.053727  Biso 1.000000     C
    C   1.0     0.110934     0.110918     0.388827  Biso 1.000000     C
    C   1.0     0.053622     0.053604     0.446291  Biso 1.000000     C
    C   1.0     0.388785     0.110869     0.110919  Biso 1.000000     C
    C   1.0     0.446293     0.053580     0.053625  Biso 1.000000     C
    C   1.0     0.111093     0.389032     0.389062  Biso 1.000000     C
    C   1.0     0.053732     0.446343     0.446380  Biso 1.000000     C
    C   1.0     0.389097     0.111101     0.388957  Biso 1.000000     C
    C   1.0     0.446388     0.053715     0.446343  Biso 1.000000     C
    C   1.0     0.110900     0.388818     0.110974  Biso 1.000000     C
    C   1.0     0.053591     0.446301     0.053648  Biso 1.000000     C
    C   1.0     0.611015     0.610951     0.888864  Biso 1.000000     C
    C   1.0     0.553646     0.553652     0.946257  Biso 1.000000     C
    C   1.0     0.889091     0.889036     0.611193  Biso 1.000000     C
    C   1.0     0.946407     0.946347     0.553749  Biso 1.000000     C
    C   1.0     0.889101     0.611216     0.889045  Biso 1.000000     C
    C   1.0     0.946403     0.553750     0.946377  Biso 1.000000     C
    C   1.0     0.610882     0.888868     0.611095  Biso 1.000000     C
    C   1.0     0.553573     0.946254     0.553726  Biso 1.000000     C
    C   1.0     0.888958     0.610953     0.610894  Biso 1.000000     C
    C   1.0     0.946321     0.553660     0.553558  Biso 1.000000     C
    C   1.0     0.611239     0.889098     0.889124  Biso 1.000000     C
    C   1.0     0.553741     0.946388     0.946418  Biso 1.000000     C
    O   1.0     0.250026     0.250010     0.250026  Biso 1.000000     O
    O   1.0     0.749998     0.749969     0.749973  Biso 1.000000     O
    O   1.0     0.366811     0.366724     0.071537  Biso 1.000000     O
    O   1.0     0.367045     0.367160     0.194896  Biso 1.000000     O
    O   1.0     0.071345     0.194685     0.366586  Biso 1.000000     O
    O   1.0     0.194717     0.071339     0.366721  Biso 1.000000     O
    O   1.0     0.366608     0.071283     0.194683  Biso 1.000000     O
    O   1.0     0.366712     0.194645     0.071347  Biso 1.000000     O
    O   1.0     0.071463     0.366753     0.366848  Biso 1.000000     O
    O   1.0     0.194907     0.367051     0.367144  Biso 1.000000     O
    O   1.0     0.367207     0.194888     0.366962  Biso 1.000000     O
    O   1.0     0.366844     0.071499     0.366699  Biso 1.000000     O
    O   1.0     0.071310     0.366674     0.194728  Biso 1.000000     O
    O   1.0     0.194683     0.366648     0.071412  Biso 1.000000     O
    O   1.0     0.633291     0.633203     0.928449  Biso 1.000000     O
    O   1.0     0.632952     0.632877     0.805087  Biso 1.000000     O
    O   1.0     0.805309     0.928620     0.633255  Biso 1.000000     O
    O   1.0     0.928677     0.805268     0.633456  Biso 1.000000     O
    O   1.0     0.928696     0.633233     0.805291  Biso 1.000000     O
    O   1.0     0.805318     0.633493     0.928601  Biso 1.000000     O
    O   1.0     0.633070     0.928468     0.633421  Biso 1.000000     O
    O   1.0     0.632885     0.805082     0.632976  Biso 1.000000     O
    O   1.0     0.805143     0.632902     0.632843  Biso 1.000000     O
    O   1.0     0.928583     0.633237     0.633109  Biso 1.000000     O
    O   1.0     0.633542     0.928679     0.805360  Biso 1.000000     O
    O   1.0     0.633189     0.805322     0.928697  Biso 1.000000     O
   Zn   1.0     0.293352     0.293213     0.119606  Biso 1.000000    Zn
   Zn   1.0     0.293675     0.293724     0.293688  Biso 1.000000    Zn
   Zn   1.0     0.119559     0.293321     0.293346  Biso 1.000000    Zn
   Zn   1.0     0.293346     0.119572     0.293221  Biso 1.000000    Zn
   Zn   1.0     0.706664     0.706791     0.880391  Biso 1.000000    Zn
   Zn   1.0     0.706387     0.706245     0.706281  Biso 1.000000    Zn
   Zn   1.0     0.706665     0.880408     0.706803  Biso 1.000000    Zn
   Zn   1.0     0.880465     0.706629     0.706658  Biso 1.000000    Zn
