#======================================================================

# CRYSTAL DATA

#----------------------------------------------------------------------

data_VESTA_phase_1


_pd_phase_name                         MOF
_cell_length_a                         18.41900
_cell_length_b                         18.42200
_cell_length_c                         18.42500
_cell_angle_alpha                      60.21700
_cell_angle_beta                       60.20000
_cell_angle_gamma                      60.19300
_symmetry_space_group_name_H-M         "P 1"
_symmetry_Int_Tables_number            1

loop_
_symmetry_equiv_pos_as_xyz
   "x, y, z"

loop_
   _atom_site_label
   _atom_site_occupancy
   _atom_site_fract_x
   _atom_site_fract_y
   _atom_site_fract_z
   _atom_site_adp_type
   _atom_site_B_iso_or_equiv
   _atom_site_type_symbol
    H   1.0     0.451527     0.451496     0.931970  Biso 1.000000     H
    H   1.0     0.452346     0.452306     0.164258  Biso 1.000000     H
    H   1.0     0.931855     0.164304     0.451883  Biso 1.000000     H
    H   1.0     0.164375     0.931890     0.451838  Biso 1.000000     H
    H   1.0     0.451888     0.931918     0.164265  Biso 1.000000     H
    H   1.0     0.451840     0.164297     0.931972  Biso 1.000000     H
    H   1.0     0.931915     0.451542     0.451554  Biso 1.000000     H
    H   1.0     0.164355     0.452249     0.452260  Biso 1.000000     H
    H   1.0     0.452314     0.164293     0.452286  Biso 1.000000     H
    H   1.0     0.451553     0.931923     0.451526  Biso 1.000000     H
    H   1.0     0.931852     0.451915     0.164268  Biso 1.000000     H
    H   1.0     0.164374     0.451819     0.931946  Biso 1.000000     H
    H   1.0     0.548504     0.548502     0.068034  Biso 1.000000     H
    H   1.0     0.547685     0.547692     0.835746  Biso 1.000000     H
    H   1.0     0.835657     0.068107     0.548165  Biso 1.000000     H
    H   1.0     0.068178     0.835694     0.548119  Biso 1.000000     H
    H   1.0     0.068179     0.548083     0.835735  Biso 1.000000     H
    H   1.0     0.835658     0.548178     0.068058  Biso 1.000000     H
    H   1.0     0.548479     0.068075     0.548477  Biso 1.000000     H
    H   1.0     0.547718     0.835704     0.547717  Biso 1.000000     H
    H   1.0     0.835677     0.547750     0.547742  Biso 1.000000     H
    H   1.0     0.068117     0.548456     0.548449  Biso 1.000000     H
    H   1.0     0.548145     0.068079     0.835739  Biso 1.000000     H
    H   1.0     0.548193     0.835699     0.068031  Biso 1.000000     H
    C   1.0     0.473112     0.473146     0.961027  Biso 1.000000     C
    C   1.0     0.473588     0.473620     0.092300  Biso 1.000000     C
    C   1.0     0.960933     0.092327     0.473372  Biso 1.000000     C
    C   1.0     0.092372     0.960947     0.473346  Biso 1.000000     C
    C   1.0     0.473379     0.960960     0.092306  Biso 1.000000     C
    C   1.0     0.473352     0.092321     0.960989  Biso 1.000000     C
    C   1.0     0.961010     0.473171     0.473120  Biso 1.000000     C
    C   1.0     0.092355     0.473584     0.473532  Biso 1.000000     C
    C   1.0     0.473595     0.092317     0.473582  Biso 1.000000     C
    C   1.0     0.473151     0.961002     0.473140  Biso 1.000000     C
    C   1.0     0.960931     0.473349     0.092309  Biso 1.000000     C
    C   1.0     0.092371     0.473292     0.960976  Biso 1.000000     C
    C   1.0     0.526915     0.526856     0.038977  Biso 1.000000     C
    C   1.0     0.526438     0.526382     0.907704  Biso 1.000000     C
    C   1.0     0.907660     0.039051     0.526660  Biso 1.000000     C
    C   1.0     0.039099     0.907671     0.526634  Biso 1.000000     C
    C   1.0     0.039100     0.526650     0.907695  Biso 1.000000     C
    C   1.0     0.907661     0.526706     0.039028  Biso 1.000000     C
    C   1.0     0.526879     0.038995     0.526866  Biso 1.000000     C
    C   1.0     0.526435     0.907681     0.526423  Biso 1.000000     C
    C   1.0     0.907677     0.526414     0.526471  Biso 1.000000     C
    C   1.0     0.039021     0.526826     0.526884  Biso 1.000000     C
    C   1.0     0.526653     0.039036     0.907697  Biso 1.000000     C
    C   1.0     0.526681     0.907676     0.039014  Biso 1.000000     C
    C   1.0     0.389064     0.389046     0.111007  Biso 1.000000     C
    C   1.0     0.446417     0.446337     0.053676  Biso 1.000000     C
    C   1.0     0.110908     0.110902     0.388888  Biso 1.000000     C
    C   1.0     0.053606     0.053603     0.446306  Biso 1.000000     C
    C   1.0     0.388890     0.110928     0.110940  Biso 1.000000     C
    C   1.0     0.446314     0.053612     0.053620  Biso 1.000000     C
    C   1.0     0.111054     0.389018     0.388984  Biso 1.000000     C
    C   1.0     0.053697     0.446330     0.446365  Biso 1.000000     C
    C   1.0     0.389078     0.111006     0.389015  Biso 1.000000     C
    C   1.0     0.446394     0.053672     0.446350  Biso 1.000000     C
    C   1.0     0.110904     0.388889     0.110910  Biso 1.000000     C
    C   1.0     0.053603     0.446347     0.053610  Biso 1.000000     C
    C   1.0     0.610957     0.610961     0.888997  Biso 1.000000     C
    C   1.0     0.553624     0.553651     0.946328  Biso 1.000000     C
    C   1.0     0.889125     0.889096     0.611123  Biso 1.000000     C
    C   1.0     0.946427     0.946395     0.553688  Biso 1.000000     C
    C   1.0     0.889127     0.611112     0.889093  Biso 1.000000     C
    C   1.0     0.946429     0.553648     0.946393  Biso 1.000000     C
    C   1.0     0.610948     0.888991     0.610994  Biso 1.000000     C
    C   1.0     0.553644     0.946325     0.553647  Biso 1.000000     C
    C   1.0     0.888978     0.610978     0.611021  Biso 1.000000     C
    C   1.0     0.946335     0.553669     0.553636  Biso 1.000000     C
    C   1.0     0.611141     0.889069     0.889063  Biso 1.000000     C
    C   1.0     0.553720     0.946384     0.946383  Biso 1.000000     C
    O   1.0     0.250011     0.250000     0.249999  Biso 1.000000     O
    O   1.0     0.750021     0.749998     0.750004  Biso 1.000000     O
    O   1.0     0.366757     0.366848     0.071384  Biso 1.000000     O
    O   1.0     0.367216     0.367005     0.194782  Biso 1.000000     O
    O   1.0     0.071311     0.194667     0.366631  Biso 1.000000     O
    O   1.0     0.194700     0.071323     0.366770  Biso 1.000000     O
    O   1.0     0.366709     0.071364     0.194678  Biso 1.000000     O
    O   1.0     0.366716     0.194685     0.071392  Biso 1.000000     O
    O   1.0     0.071394     0.366780     0.366753  Biso 1.000000     O
    O   1.0     0.194875     0.367063     0.367010  Biso 1.000000     O
    O   1.0     0.367215     0.194801     0.366974  Biso 1.000000     O
    O   1.0     0.366774     0.071366     0.366829  Biso 1.000000     O
    O   1.0     0.071313     0.366639     0.194654  Biso 1.000000     O
    O   1.0     0.194695     0.366791     0.071350  Biso 1.000000     O
    O   1.0     0.633279     0.633145     0.928620  Biso 1.000000     O
    O   1.0     0.632819     0.632989     0.805222  Biso 1.000000     O
    O   1.0     0.805332     0.928675     0.633230  Biso 1.000000     O
    O   1.0     0.928721     0.805331     0.633368  Biso 1.000000     O
    O   1.0     0.928719     0.633360     0.805350  Biso 1.000000     O
    O   1.0     0.805336     0.633205     0.928654  Biso 1.000000     O
    O   1.0     0.633261     0.928631     0.633171  Biso 1.000000     O
    O   1.0     0.632818     0.805196     0.633029  Biso 1.000000     O
    O   1.0     0.805157     0.632936     0.632992  Biso 1.000000     O
    O   1.0     0.928638     0.633217     0.633251  Biso 1.000000     O
    O   1.0     0.633324     0.928633     0.805326  Biso 1.000000     O
    O   1.0     0.633315     0.805312     0.928611  Biso 1.000000     O
   Zn   1.0     0.293281     0.293330     0.119612  Biso 1.000000    Zn
   Zn   1.0     0.293817     0.293653     0.293607  Biso 1.000000    Zn
   Zn   1.0     0.119534     0.293265     0.293248  Biso 1.000000    Zn
   Zn   1.0     0.293291     0.119574     0.293318  Biso 1.000000    Zn
   Zn   1.0     0.706751     0.706667     0.880391  Biso 1.000000    Zn
   Zn   1.0     0.706215     0.706345     0.706396  Biso 1.000000    Zn
   Zn   1.0     0.706742     0.880423     0.706684  Biso 1.000000    Zn
   Zn   1.0     0.880499     0.706732     0.706755  Biso 1.000000    Zn
