#======================================================================

# CRYSTAL DATA

#----------------------------------------------------------------------

data_VESTA_phase_1


_pd_phase_name                         MOF
_cell_length_a                         18.41800
_cell_length_b                         18.42100
_cell_length_c                         18.42400
_cell_angle_alpha                      60.22900
_cell_angle_beta                       60.21000
_cell_angle_gamma                      60.20200
_symmetry_space_group_name_H-M         "P 1"
_symmetry_Int_Tables_number            1

loop_
_symmetry_equiv_pos_as_xyz
   "x, y, z"

loop_
   _atom_site_label
   _atom_site_occupancy
   _atom_site_fract_x
   _atom_site_fract_y
   _atom_site_fract_z
   _atom_site_adp_type
   _atom_site_B_iso_or_equiv
   _atom_site_type_symbol
    H   1.0     0.451464     0.451470     0.931974  Biso 1.000000     H
    H   1.0     0.452340     0.452328     0.164245  Biso 1.000000     H
    H   1.0     0.931821     0.164293     0.451872  Biso 1.000000     H
    H   1.0     0.164345     0.931879     0.451824  Biso 1.000000     H
    H   1.0     0.451849     0.931906     0.164251  Biso 1.000000     H
    H   1.0     0.451803     0.164288     0.931968  Biso 1.000000     H
    H   1.0     0.931887     0.451520     0.451516  Biso 1.000000     H
    H   1.0     0.164333     0.452269     0.452267  Biso 1.000000     H
    H   1.0     0.452322     0.164282     0.452295  Biso 1.000000     H
    H   1.0     0.451500     0.931921     0.451491  Biso 1.000000     H
    H   1.0     0.931817     0.451899     0.164255  Biso 1.000000     H
    H   1.0     0.164348     0.451801     0.931940  Biso 1.000000     H
    H   1.0     0.548508     0.548507     0.068011  Biso 1.000000     H
    H   1.0     0.547632     0.547649     0.835740  Biso 1.000000     H
    H   1.0     0.835627     0.068098     0.548160  Biso 1.000000     H
    H   1.0     0.068152     0.835685     0.548111  Biso 1.000000     H
    H   1.0     0.068156     0.548078     0.835730  Biso 1.000000     H
    H   1.0     0.835626     0.548176     0.068045  Biso 1.000000     H
    H   1.0     0.548477     0.068056     0.548492  Biso 1.000000     H
    H   1.0     0.547654     0.835695     0.547689  Biso 1.000000     H
    H   1.0     0.835640     0.547710     0.547718  Biso 1.000000     H
    H   1.0     0.068085     0.548459     0.548468  Biso 1.000000     H
    H   1.0     0.548123     0.068073     0.835734  Biso 1.000000     H
    H   1.0     0.548169     0.835690     0.068017  Biso 1.000000     H
    C   1.0     0.473091     0.473099     0.961019  Biso 1.000000     C
    C   1.0     0.473602     0.473597     0.092293  Biso 1.000000     C
    C   1.0     0.960897     0.092321     0.473341  Biso 1.000000     C
    C   1.0     0.092347     0.960931     0.473314  Biso 1.000000     C
    C   1.0     0.473330     0.960943     0.092299  Biso 1.000000     C
    C   1.0     0.473306     0.092317     0.960978  Biso 1.000000     C
    C   1.0     0.960973     0.473127     0.473123  Biso 1.000000     C
    C   1.0     0.092337     0.473562     0.473558  Biso 1.000000     C
    C   1.0     0.473591     0.092311     0.473581  Biso 1.000000     C
    C   1.0     0.473108     0.960990     0.473115  Biso 1.000000     C
    C   1.0     0.960893     0.473350     0.092302  Biso 1.000000     C
    C   1.0     0.092348     0.473294     0.960964  Biso 1.000000     C
    C   1.0     0.526880     0.526878     0.038966  Biso 1.000000     C
    C   1.0     0.526369     0.526381     0.907692  Biso 1.000000     C
    C   1.0     0.907626     0.039047     0.526670  Biso 1.000000     C
    C   1.0     0.039076     0.907657     0.526643  Biso 1.000000     C
    C   1.0     0.039080     0.526627     0.907683  Biso 1.000000     C
    C   1.0     0.907625     0.526684     0.039021  Biso 1.000000     C
    C   1.0     0.526869     0.038987     0.526868  Biso 1.000000     C
    C   1.0     0.526386     0.907666     0.526402  Biso 1.000000     C
    C   1.0     0.907635     0.526416     0.526427  Biso 1.000000     C
    C   1.0     0.038999     0.526851     0.526862  Biso 1.000000     C
    C   1.0     0.526642     0.039035     0.907686  Biso 1.000000     C
    C   1.0     0.526666     0.907661     0.039007  Biso 1.000000     C
    C   1.0     0.389059     0.389022     0.111016  Biso 1.000000     C
    C   1.0     0.446365     0.446357     0.053680  Biso 1.000000     C
    C   1.0     0.110897     0.110899     0.388850  Biso 1.000000     C
    C   1.0     0.053598     0.053602     0.446314  Biso 1.000000     C
    C   1.0     0.388840     0.110924     0.110939  Biso 1.000000     C
    C   1.0     0.446306     0.053611     0.053622  Biso 1.000000     C
    C   1.0     0.111050     0.389013     0.388974  Biso 1.000000     C
    C   1.0     0.053688     0.446346     0.446333  Biso 1.000000     C
    C   1.0     0.389068     0.111014     0.388999  Biso 1.000000     C
    C   1.0     0.446371     0.053675     0.446346  Biso 1.000000     C
    C   1.0     0.110892     0.388863     0.110909  Biso 1.000000     C
    C   1.0     0.053593     0.446320     0.053611  Biso 1.000000     C
    C   1.0     0.610916     0.610952     0.888969  Biso 1.000000     C
    C   1.0     0.553608     0.553619     0.946305  Biso 1.000000     C
    C   1.0     0.889076     0.889079     0.611133  Biso 1.000000     C
    C   1.0     0.946375     0.946375     0.553669  Biso 1.000000     C
    C   1.0     0.889081     0.611113     0.889076  Biso 1.000000     C
    C   1.0     0.946380     0.553656     0.946375  Biso 1.000000     C
    C   1.0     0.610905     0.888963     0.610987  Biso 1.000000     C
    C   1.0     0.553604     0.946301     0.553639  Biso 1.000000     C
    C   1.0     0.888922     0.610969     0.611008  Biso 1.000000     C
    C   1.0     0.946285     0.553635     0.553650  Biso 1.000000     C
    C   1.0     0.611132     0.889054     0.889046  Biso 1.000000     C
    C   1.0     0.553666     0.946367     0.946364  Biso 1.000000     C
    O   1.0     0.249997     0.249996     0.249997  Biso 1.000000     O
    O   1.0     0.749975     0.749982     0.749989  Biso 1.000000     O
    O   1.0     0.366723     0.366833     0.071401  Biso 1.000000     O
    O   1.0     0.367206     0.367004     0.194785  Biso 1.000000     O
    O   1.0     0.071304     0.194657     0.366607  Biso 1.000000     O
    O   1.0     0.194685     0.071324     0.366751  Biso 1.000000     O
    O   1.0     0.366683     0.071365     0.194669  Biso 1.000000     O
    O   1.0     0.366691     0.194674     0.071396  Biso 1.000000     O
    O   1.0     0.071396     0.366763     0.366738  Biso 1.000000     O
    O   1.0     0.194867     0.367064     0.367010  Biso 1.000000     O
    O   1.0     0.367206     0.194804     0.366973  Biso 1.000000     O
    O   1.0     0.366743     0.071381     0.366817  Biso 1.000000     O
    O   1.0     0.071305     0.366607     0.194645  Biso 1.000000     O
    O   1.0     0.194678     0.366771     0.071355  Biso 1.000000     O
    O   1.0     0.633249     0.633144     0.928585  Biso 1.000000     O
    O   1.0     0.632766     0.632973     0.805200  Biso 1.000000     O
    O   1.0     0.805288     0.928653     0.633235  Biso 1.000000     O
    O   1.0     0.928669     0.805320     0.633379  Biso 1.000000     O
    O   1.0     0.928668     0.633371     0.805340  Biso 1.000000     O
    O   1.0     0.805295     0.633208     0.928631  Biso 1.000000     O
    O   1.0     0.633232     0.928596     0.633167  Biso 1.000000     O
    O   1.0     0.632767     0.805173     0.633014  Biso 1.000000     O
    O   1.0     0.805106     0.632913     0.632977  Biso 1.000000     O
    O   1.0     0.928577     0.633215     0.633248  Biso 1.000000     O
    O   1.0     0.633291     0.928613     0.805317  Biso 1.000000     O
    O   1.0     0.633279     0.805304     0.928590  Biso 1.000000     O
   Zn   1.0     0.293255     0.293308     0.119622  Biso 1.000000    Zn
   Zn   1.0     0.293810     0.293656     0.293610  Biso 1.000000    Zn
   Zn   1.0     0.119528     0.293249     0.293232  Biso 1.000000    Zn
   Zn   1.0     0.293266     0.119581     0.293300  Biso 1.000000    Zn
   Zn   1.0     0.706717     0.706669     0.880364  Biso 1.000000    Zn
   Zn   1.0     0.706163     0.706321     0.706377  Biso 1.000000    Zn
   Zn   1.0     0.706707     0.880396     0.706687  Biso 1.000000    Zn
   Zn   1.0     0.880444     0.706729     0.706754  Biso 1.000000    Zn
