#======================================================================

# CRYSTAL DATA

#----------------------------------------------------------------------

data_VESTA_phase_1


_pd_phase_name                         MOF
_cell_length_a                         18.42000
_cell_length_b                         18.42500
_cell_length_c                         18.42600
_cell_angle_alpha                      60.18800
_cell_angle_beta                       60.19400
_cell_angle_gamma                      60.19100
_symmetry_space_group_name_H-M         "P 1"
_symmetry_Int_Tables_number            1

loop_
_symmetry_equiv_pos_as_xyz
   "x, y, z"

loop_
   _atom_site_label
   _atom_site_occupancy
   _atom_site_fract_x
   _atom_site_fract_y
   _atom_site_fract_z
   _atom_site_adp_type
   _atom_site_B_iso_or_equiv
   _atom_site_type_symbol
    H   1.0     0.451430     0.451406     0.932180  Biso 1.000000     H
    H   1.0     0.452399     0.452358     0.164284  Biso 1.000000     H
    H   1.0     0.931846     0.164310     0.451796  Biso 1.000000     H
    H   1.0     0.164362     0.931907     0.451767  Biso 1.000000     H
    H   1.0     0.451809     0.931849     0.164300  Biso 1.000000     H
    H   1.0     0.451802     0.164308     0.931931  Biso 1.000000     H
    H   1.0     0.932027     0.451492     0.451495  Biso 1.000000     H
    H   1.0     0.164333     0.452347     0.452351  Biso 1.000000     H
    H   1.0     0.452406     0.164290     0.452324  Biso 1.000000     H
    H   1.0     0.451461     0.932104     0.451448  Biso 1.000000     H
    H   1.0     0.931835     0.451791     0.164299  Biso 1.000000     H
    H   1.0     0.164356     0.451729     0.931977  Biso 1.000000     H
    H   1.0     0.548578     0.548576     0.067853  Biso 1.000000     H
    H   1.0     0.547608     0.547624     0.835749  Biso 1.000000     H
    H   1.0     0.835649     0.068078     0.548259  Biso 1.000000     H
    H   1.0     0.068165     0.835675     0.548231  Biso 1.000000     H
    H   1.0     0.068174     0.548194     0.835727  Biso 1.000000     H
    H   1.0     0.835652     0.548258     0.068049  Biso 1.000000     H
    H   1.0     0.548566     0.067881     0.548562  Biso 1.000000     H
    H   1.0     0.547619     0.835695     0.547689  Biso 1.000000     H
    H   1.0     0.835670     0.547643     0.547677  Biso 1.000000     H
    H   1.0     0.067976     0.548497     0.548532  Biso 1.000000     H
    H   1.0     0.548210     0.068138     0.835726  Biso 1.000000     H
    H   1.0     0.548215     0.835680     0.068094  Biso 1.000000     H
    C   1.0     0.473077     0.473094     0.961130  Biso 1.000000     C
    C   1.0     0.473615     0.473626     0.092318  Biso 1.000000     C
    C   1.0     0.960923     0.092329     0.473299  Biso 1.000000     C
    C   1.0     0.092363     0.960946     0.473287  Biso 1.000000     C
    C   1.0     0.473292     0.960925     0.092325  Biso 1.000000     C
    C   1.0     0.473285     0.092325     0.960982  Biso 1.000000     C
    C   1.0     0.961047     0.473114     0.473138  Biso 1.000000     C
    C   1.0     0.092342     0.473591     0.473615  Biso 1.000000     C
    C   1.0     0.473645     0.092318     0.473587  Biso 1.000000     C
    C   1.0     0.473124     0.961072     0.473101  Biso 1.000000     C
    C   1.0     0.960920     0.473309     0.092326  Biso 1.000000     C
    C   1.0     0.092357     0.473275     0.961000  Biso 1.000000     C
    C   1.0     0.526933     0.526885     0.038903  Biso 1.000000     C
    C   1.0     0.526395     0.526354     0.907715  Biso 1.000000     C
    C   1.0     0.907648     0.039039     0.526740  Biso 1.000000     C
    C   1.0     0.039088     0.907656     0.526728  Biso 1.000000     C
    C   1.0     0.039089     0.526676     0.907700  Biso 1.000000     C
    C   1.0     0.907652     0.526710     0.039026  Biso 1.000000     C
    C   1.0     0.526897     0.038913     0.526914  Biso 1.000000     C
    C   1.0     0.526376     0.907667     0.526430  Biso 1.000000     C
    C   1.0     0.907661     0.526398     0.526413  Biso 1.000000     C
    C   1.0     0.038957     0.526875     0.526890  Biso 1.000000     C
    C   1.0     0.526721     0.039062     0.907700  Biso 1.000000     C
    C   1.0     0.526727     0.907662     0.039043  Biso 1.000000     C
    C   1.0     0.389053     0.389019     0.111171  Biso 1.000000     C
    C   1.0     0.446403     0.446327     0.053761  Biso 1.000000     C
    C   1.0     0.110914     0.110929     0.388766  Biso 1.000000     C
    C   1.0     0.053607     0.053615     0.446247  Biso 1.000000     C
    C   1.0     0.388805     0.110897     0.110924  Biso 1.000000     C
    C   1.0     0.446264     0.053600     0.053616  Biso 1.000000     C
    C   1.0     0.111131     0.389041     0.389047  Biso 1.000000     C
    C   1.0     0.053739     0.446382     0.446356  Biso 1.000000     C
    C   1.0     0.389080     0.111149     0.388996  Biso 1.000000     C
    C   1.0     0.446392     0.053744     0.446346  Biso 1.000000     C
    C   1.0     0.110907     0.388762     0.110949  Biso 1.000000     C
    C   1.0     0.053605     0.446212     0.053629  Biso 1.000000     C
    C   1.0     0.610959     0.610959     0.888862  Biso 1.000000     C
    C   1.0     0.553605     0.553655     0.946272  Biso 1.000000     C
    C   1.0     0.889096     0.889056     0.611263  Biso 1.000000     C
    C   1.0     0.946403     0.946370     0.553780  Biso 1.000000     C
    C   1.0     0.889102     0.611226     0.889077  Biso 1.000000     C
    C   1.0     0.946404     0.553775     0.946398  Biso 1.000000     C
    C   1.0     0.610935     0.888836     0.611025  Biso 1.000000     C
    C   1.0     0.553634     0.946241     0.553665  Biso 1.000000     C
    C   1.0     0.888873     0.610950     0.610979  Biso 1.000000     C
    C   1.0     0.946264     0.553609     0.553670  Biso 1.000000     C
    C   1.0     0.611203     0.889089     0.889102  Biso 1.000000     C
    C   1.0     0.553754     0.946388     0.946409  Biso 1.000000     C
    O   1.0     0.250027     0.250026     0.250043  Biso 1.000000     O
    O   1.0     0.749980     0.749959     0.749986  Biso 1.000000     O
    O   1.0     0.366767     0.366761     0.071593  Biso 1.000000     O
    O   1.0     0.367164     0.367060     0.194946  Biso 1.000000     O
    O   1.0     0.071326     0.194696     0.366547  Biso 1.000000     O
    O   1.0     0.194701     0.071356     0.366642  Biso 1.000000     O
    O   1.0     0.366598     0.071320     0.194687  Biso 1.000000     O
    O   1.0     0.366648     0.194669     0.071360  Biso 1.000000     O
    O   1.0     0.071514     0.366793     0.366785  Biso 1.000000     O
    O   1.0     0.194938     0.367121     0.367094  Biso 1.000000     O
    O   1.0     0.367177     0.194932     0.367043  Biso 1.000000     O
    O   1.0     0.366807     0.071560     0.366736  Biso 1.000000     O
    O   1.0     0.071318     0.366547     0.194707  Biso 1.000000     O
    O   1.0     0.194694     0.366624     0.071387  Biso 1.000000     O
    O   1.0     0.633252     0.633211     0.928439  Biso 1.000000     O
    O   1.0     0.632843     0.632921     0.805086  Biso 1.000000     O
    O   1.0     0.805309     0.928630     0.633387  Biso 1.000000     O
    O   1.0     0.928684     0.805289     0.633485  Biso 1.000000     O
    O   1.0     0.928691     0.633430     0.805319  Biso 1.000000     O
    O   1.0     0.805315     0.633376     0.928639  Biso 1.000000     O
    O   1.0     0.633215     0.928425     0.633279  Biso 1.000000     O
    O   1.0     0.632823     0.805053     0.632994  Biso 1.000000     O
    O   1.0     0.805065     0.632869     0.632934  Biso 1.000000     O
    O   1.0     0.928490     0.633199     0.633240  Biso 1.000000     O
    O   1.0     0.633414     0.928667     0.805339  Biso 1.000000     O
    O   1.0     0.633346     0.805318     0.928667  Biso 1.000000     O
   Zn   1.0     0.293319     0.293252     0.119628  Biso 1.000000    Zn
   Zn   1.0     0.293720     0.293714     0.293708  Biso 1.000000    Zn
   Zn   1.0     0.119561     0.293311     0.293316  Biso 1.000000    Zn
   Zn   1.0     0.293324     0.119596     0.293259  Biso 1.000000    Zn
   Zn   1.0     0.706687     0.706733     0.880402  Biso 1.000000    Zn
   Zn   1.0     0.706284     0.706270     0.706326  Biso 1.000000    Zn
   Zn   1.0     0.706686     0.880390     0.706768  Biso 1.000000    Zn
   Zn   1.0     0.880446     0.706676     0.706712  Biso 1.000000    Zn
