#======================================================================

# CRYSTAL DATA

#----------------------------------------------------------------------

data_VESTA_phase_1


_pd_phase_name                         MOF
_cell_length_a                         18.41100
_cell_length_b                         18.42900
_cell_length_c                         18.42900
_cell_angle_alpha                      60.14200
_cell_angle_beta                       60.21700
_cell_angle_gamma                      60.21900
_symmetry_space_group_name_H-M         "P 1"
_symmetry_Int_Tables_number            1

loop_
_symmetry_equiv_pos_as_xyz
   "x, y, z"

loop_
   _atom_site_label
   _atom_site_occupancy
   _atom_site_fract_x
   _atom_site_fract_y
   _atom_site_fract_z
   _atom_site_adp_type
   _atom_site_B_iso_or_equiv
   _atom_site_type_symbol
    H   1.0     0.451551     0.451453     0.932027  Biso 1.000000     H
    H   1.0     0.452241     0.452282     0.164300  Biso 1.000000     H
    H   1.0     0.931963     0.164310     0.451845  Biso 1.000000     H
    H   1.0     0.164359     0.931930     0.451759  Biso 1.000000     H
    H   1.0     0.451899     0.931768     0.164325  Biso 1.000000     H
    H   1.0     0.451903     0.164321     0.931777  Biso 1.000000     H
    H   1.0     0.931853     0.451582     0.451589  Biso 1.000000     H
    H   1.0     0.164357     0.452326     0.452333  Biso 1.000000     H
    H   1.0     0.452243     0.164299     0.452298  Biso 1.000000     H
    H   1.0     0.451547     0.932007     0.451467  Biso 1.000000     H
    H   1.0     0.931963     0.451834     0.164312  Biso 1.000000     H
    H   1.0     0.164359     0.451744     0.931940  Biso 1.000000     H
    H   1.0     0.548495     0.548530     0.067980  Biso 1.000000     H
    H   1.0     0.547805     0.547701     0.835706  Biso 1.000000     H
    H   1.0     0.835684     0.068057     0.548250  Biso 1.000000     H
    H   1.0     0.068080     0.835677     0.548164  Biso 1.000000     H
    H   1.0     0.068079     0.548154     0.835694  Biso 1.000000     H
    H   1.0     0.835683     0.548243     0.068066  Biso 1.000000     H
    H   1.0     0.548497     0.067980     0.548539  Biso 1.000000     H
    H   1.0     0.547801     0.835689     0.547708  Biso 1.000000     H
    H   1.0     0.835686     0.547660     0.547674  Biso 1.000000     H
    H   1.0     0.068189     0.548404     0.548418  Biso 1.000000     H
    H   1.0     0.548144     0.068219     0.835682  Biso 1.000000     H
    H   1.0     0.548140     0.835665     0.068230  Biso 1.000000     H
    C   1.0     0.473170     0.473095     0.961045  Biso 1.000000     C
    C   1.0     0.473558     0.473575     0.092323  Biso 1.000000     C
    C   1.0     0.960993     0.092331     0.473340  Biso 1.000000     C
    C   1.0     0.092365     0.960960     0.473283  Biso 1.000000     C
    C   1.0     0.473369     0.960877     0.092339  Biso 1.000000     C
    C   1.0     0.473371     0.092337     0.960892  Biso 1.000000     C
    C   1.0     0.960969     0.473166     0.473175  Biso 1.000000     C
    C   1.0     0.092357     0.473590     0.473599  Biso 1.000000     C
    C   1.0     0.473558     0.092323     0.473588  Biso 1.000000     C
    C   1.0     0.473168     0.961025     0.473107  Biso 1.000000     C
    C   1.0     0.960993     0.473329     0.092332  Biso 1.000000     C
    C   1.0     0.092365     0.473269     0.960975  Biso 1.000000     C
    C   1.0     0.526876     0.526889     0.038961  Biso 1.000000     C
    C   1.0     0.526488     0.526408     0.907684  Biso 1.000000     C
    C   1.0     0.907678     0.039027     0.526725  Biso 1.000000     C
    C   1.0     0.039050     0.907656     0.526669  Biso 1.000000     C
    C   1.0     0.039049     0.526659     0.907674  Biso 1.000000     C
    C   1.0     0.907677     0.526718     0.039031  Biso 1.000000     C
    C   1.0     0.526875     0.038962     0.526899  Biso 1.000000     C
    C   1.0     0.526486     0.907665     0.526418  Biso 1.000000     C
    C   1.0     0.907685     0.526396     0.526408  Biso 1.000000     C
    C   1.0     0.039073     0.526821     0.526832  Biso 1.000000     C
    C   1.0     0.526674     0.039110     0.907668  Biso 1.000000     C
    C   1.0     0.526672     0.907650     0.039115  Biso 1.000000     C
    C   1.0     0.388998     0.388977     0.111103  Biso 1.000000     C
    C   1.0     0.446355     0.446336     0.053709  Biso 1.000000     C
    C   1.0     0.110980     0.110977     0.388807  Biso 1.000000     C
    C   1.0     0.053646     0.053635     0.446273  Biso 1.000000     C
    C   1.0     0.388994     0.110818     0.110813  Biso 1.000000     C
    C   1.0     0.446364     0.053567     0.053561  Biso 1.000000     C
    C   1.0     0.110962     0.389130     0.389150  Biso 1.000000     C
    C   1.0     0.053652     0.446400     0.446421  Biso 1.000000     C
    C   1.0     0.388993     0.111101     0.388997  Biso 1.000000     C
    C   1.0     0.446346     0.053710     0.446356  Biso 1.000000     C
    C   1.0     0.110979     0.388810     0.110970  Biso 1.000000     C
    C   1.0     0.053646     0.446273     0.053630  Biso 1.000000     C
    C   1.0     0.611046     0.611008     0.888904  Biso 1.000000     C
    C   1.0     0.553691     0.553648     0.946297  Biso 1.000000     C
    C   1.0     0.889063     0.889010     0.611200  Biso 1.000000     C
    C   1.0     0.946397     0.946353     0.553736  Biso 1.000000     C
    C   1.0     0.889063     0.611178     0.889037  Biso 1.000000     C
    C   1.0     0.946396     0.553715     0.946376  Biso 1.000000     C
    C   1.0     0.611049     0.888886     0.611010  Biso 1.000000     C
    C   1.0     0.553697     0.946277     0.553650  Biso 1.000000     C
    C   1.0     0.889080     0.610857     0.610857  Biso 1.000000     C
    C   1.0     0.946390     0.553586     0.553587  Biso 1.000000     C
    C   1.0     0.611050     0.889169     0.889194  Biso 1.000000     C
    C   1.0     0.553679     0.946420     0.946446  Biso 1.000000     C
    O   1.0     0.250027     0.250009     0.250011  Biso 1.000000     O
    O   1.0     0.750015     0.749977     0.749996  Biso 1.000000     O
    O   1.0     0.367140     0.366335     0.071496  Biso 1.000000     O
    O   1.0     0.366654     0.367409     0.194887  Biso 1.000000     O
    O   1.0     0.071414     0.194736     0.367085  Biso 1.000000     O
    O   1.0     0.194752     0.071421     0.366228  Biso 1.000000     O
    O   1.0     0.366868     0.071214     0.194596  Biso 1.000000     O
    O   1.0     0.366845     0.194599     0.071207  Biso 1.000000     O
    O   1.0     0.071288     0.366912     0.366907  Biso 1.000000     O
    O   1.0     0.194790     0.367179     0.367207  Biso 1.000000     O
    O   1.0     0.366652     0.194884     0.367427  Biso 1.000000     O
    O   1.0     0.367149     0.071495     0.366340  Biso 1.000000     O
    O   1.0     0.071414     0.367100     0.194731  Biso 1.000000     O
    O   1.0     0.194751     0.366200     0.071411  Biso 1.000000     O
    O   1.0     0.632903     0.633652     0.928511  Biso 1.000000     O
    O   1.0     0.633390     0.632577     0.805120  Biso 1.000000     O
    O   1.0     0.805290     0.928566     0.633778  Biso 1.000000     O
    O   1.0     0.928629     0.805251     0.632920  Biso 1.000000     O
    O   1.0     0.928629     0.632889     0.805275  Biso 1.000000     O
    O   1.0     0.805291     0.633787     0.928596  Biso 1.000000     O
    O   1.0     0.632892     0.928492     0.633669  Biso 1.000000     O
    O   1.0     0.633392     0.805103     0.632578  Biso 1.000000     O
    O   1.0     0.805252     0.632808     0.632799  Biso 1.000000     O
    O   1.0     0.928754     0.633074     0.633100  Biso 1.000000     O
    O   1.0     0.633176     0.928773     0.805411  Biso 1.000000     O
    O   1.0     0.633197     0.805388     0.928800  Biso 1.000000     O
   Zn   1.0     0.293475     0.292996     0.119575  Biso 1.000000    Zn
   Zn   1.0     0.293401     0.293827     0.293846  Biso 1.000000    Zn
   Zn   1.0     0.119567     0.293472     0.293464  Biso 1.000000    Zn
   Zn   1.0     0.293487     0.119577     0.292998  Biso 1.000000    Zn
   Zn   1.0     0.706567     0.706992     0.880432  Biso 1.000000    Zn
   Zn   1.0     0.706641     0.706160     0.706161  Biso 1.000000    Zn
   Zn   1.0     0.706556     0.880410     0.707009  Biso 1.000000    Zn
   Zn   1.0     0.880476     0.706516     0.706542  Biso 1.000000    Zn
