#======================================================================

# CRYSTAL DATA

#----------------------------------------------------------------------

data_VESTA_phase_1


_pd_phase_name                         MOF
_cell_length_a                         18.41800
_cell_length_b                         18.42100
_cell_length_c                         18.42100
_cell_angle_alpha                      60.21100
_cell_angle_beta                       60.22300
_cell_angle_gamma                      60.22300
_symmetry_space_group_name_H-M         "P 1"
_symmetry_Int_Tables_number            1

loop_
_symmetry_equiv_pos_as_xyz
   "x, y, z"

loop_
   _atom_site_label
   _atom_site_occupancy
   _atom_site_fract_x
   _atom_site_fract_y
   _atom_site_fract_z
   _atom_site_adp_type
   _atom_site_B_iso_or_equiv
   _atom_site_type_symbol
    H   1.0     0.451370     0.451351     0.932196  Biso 1.000000     H
    H   1.0     0.452462     0.452428     0.164267  Biso 1.000000     H
    H   1.0     0.931886     0.164291     0.451762  Biso 1.000000     H
    H   1.0     0.164296     0.931954     0.451726  Biso 1.000000     H
    H   1.0     0.451782     0.931883     0.164295  Biso 1.000000     H
    H   1.0     0.451775     0.164299     0.931892  Biso 1.000000     H
    H   1.0     0.932118     0.451402     0.451408  Biso 1.000000     H
    H   1.0     0.164275     0.452427     0.452428  Biso 1.000000     H
    H   1.0     0.452463     0.164269     0.452420  Biso 1.000000     H
    H   1.0     0.451372     0.932188     0.451356  Biso 1.000000     H
    H   1.0     0.931881     0.451774     0.164290  Biso 1.000000     H
    H   1.0     0.164294     0.451720     0.931965  Biso 1.000000     H
    H   1.0     0.548635     0.548643     0.067801  Biso 1.000000     H
    H   1.0     0.547543     0.547565     0.835730  Biso 1.000000     H
    H   1.0     0.835707     0.068041     0.548275  Biso 1.000000     H
    H   1.0     0.068116     0.835703     0.548238  Biso 1.000000     H
    H   1.0     0.068121     0.548223     0.835707  Biso 1.000000     H
    H   1.0     0.835708     0.548276     0.068032  Biso 1.000000     H
    H   1.0     0.548630     0.067808     0.548641  Biso 1.000000     H
    H   1.0     0.547540     0.835727     0.547576  Biso 1.000000     H
    H   1.0     0.835727     0.547571     0.547566  Biso 1.000000     H
    H   1.0     0.067884     0.548595     0.548587  Biso 1.000000     H
    H   1.0     0.548221     0.068114     0.835701  Biso 1.000000     H
    H   1.0     0.548229     0.835698     0.068104  Biso 1.000000     H
    C   1.0     0.473074     0.473034     0.961128  Biso 1.000000     C
    C   1.0     0.473680     0.473630     0.092307  Biso 1.000000     C
    C   1.0     0.960949     0.092322     0.473273  Biso 1.000000     C
    C   1.0     0.092319     0.960976     0.473254  Biso 1.000000     C
    C   1.0     0.473282     0.960939     0.092322  Biso 1.000000     C
    C   1.0     0.473276     0.092326     0.960945  Biso 1.000000     C
    C   1.0     0.961094     0.473087     0.473064  Biso 1.000000     C
    C   1.0     0.092309     0.473657     0.473632  Biso 1.000000     C
    C   1.0     0.473679     0.092309     0.473627  Biso 1.000000     C
    C   1.0     0.473075     0.961123     0.473036  Biso 1.000000     C
    C   1.0     0.960947     0.473273     0.092320  Biso 1.000000     C
    C   1.0     0.092317     0.473247     0.960983  Biso 1.000000     C
    C   1.0     0.526932     0.526960     0.038869  Biso 1.000000     C
    C   1.0     0.526325     0.526363     0.907690  Biso 1.000000     C
    C   1.0     0.907684     0.039019     0.526747  Biso 1.000000     C
    C   1.0     0.039054     0.907673     0.526729  Biso 1.000000     C
    C   1.0     0.039055     0.526723     0.907677  Biso 1.000000     C
    C   1.0     0.907685     0.526749     0.039014  Biso 1.000000     C
    C   1.0     0.526927     0.038873     0.526960  Biso 1.000000     C
    C   1.0     0.526323     0.907687     0.526369  Biso 1.000000     C
    C   1.0     0.907694     0.526341     0.526362  Biso 1.000000     C
    C   1.0     0.038909     0.526911     0.526929  Biso 1.000000     C
    C   1.0     0.526720     0.039058     0.907674  Biso 1.000000     C
    C   1.0     0.526726     0.907671     0.039051  Biso 1.000000     C
    C   1.0     0.389043     0.389007     0.111211  Biso 1.000000     C
    C   1.0     0.446381     0.446340     0.053783  Biso 1.000000     C
    C   1.0     0.110900     0.110953     0.388689  Biso 1.000000     C
    C   1.0     0.053595     0.053632     0.446205  Biso 1.000000     C
    C   1.0     0.388768     0.110896     0.110899  Biso 1.000000     C
    C   1.0     0.446244     0.053602     0.053603  Biso 1.000000     C
    C   1.0     0.111143     0.389041     0.389066  Biso 1.000000     C
    C   1.0     0.053744     0.446370     0.446369  Biso 1.000000     C
    C   1.0     0.389049     0.111208     0.389001  Biso 1.000000     C
    C   1.0     0.446377     0.053783     0.446343  Biso 1.000000     C
    C   1.0     0.110895     0.388701     0.110958  Biso 1.000000     C
    C   1.0     0.053594     0.446204     0.053634  Biso 1.000000     C
    C   1.0     0.610959     0.610990     0.888786  Biso 1.000000     C
    C   1.0     0.553624     0.553654     0.946214  Biso 1.000000     C
    C   1.0     0.889103     0.889042     0.611307  Biso 1.000000     C
    C   1.0     0.946408     0.946363     0.553795  Biso 1.000000     C
    C   1.0     0.889107     0.611296     0.889039  Biso 1.000000     C
    C   1.0     0.946409     0.553793     0.946363  Biso 1.000000     C
    C   1.0     0.610954     0.888788     0.610995  Biso 1.000000     C
    C   1.0     0.553626     0.946213     0.553653  Biso 1.000000     C
    C   1.0     0.888860     0.610953     0.610931  Biso 1.000000     C
    C   1.0     0.946258     0.553627     0.553626  Biso 1.000000     C
    C   1.0     0.611238     0.889101     0.889097  Biso 1.000000     C
    C   1.0     0.553759     0.946395     0.946394  Biso 1.000000     C
    O   1.0     0.250027     0.250041     0.250043  Biso 1.000000     O
    O   1.0     0.749975     0.749954     0.749954  Biso 1.000000     O
    O   1.0     0.366811     0.366646     0.071642  Biso 1.000000     O
    O   1.0     0.367110     0.367136     0.194983  Biso 1.000000     O
    O   1.0     0.071329     0.194704     0.366552  Biso 1.000000     O
    O   1.0     0.194660     0.071399     0.366464  Biso 1.000000     O
    O   1.0     0.366580     0.071327     0.194658  Biso 1.000000     O
    O   1.0     0.366583     0.194655     0.071332  Biso 1.000000     O
    O   1.0     0.071554     0.366764     0.366767  Biso 1.000000     O
    O   1.0     0.194927     0.367152     0.367139  Biso 1.000000     O
    O   1.0     0.367112     0.194979     0.367132  Biso 1.000000     O
    O   1.0     0.366811     0.071637     0.366647  Biso 1.000000     O
    O   1.0     0.071322     0.366574     0.194709  Biso 1.000000     O
    O   1.0     0.194655     0.366452     0.071407  Biso 1.000000     O
    O   1.0     0.633191     0.633351     0.928355  Biso 1.000000     O
    O   1.0     0.632895     0.632858     0.805014  Biso 1.000000     O
    O   1.0     0.805343     0.928596     0.633535  Biso 1.000000     O
    O   1.0     0.928674     0.805291     0.633444  Biso 1.000000     O
    O   1.0     0.928680     0.633424     0.805288  Biso 1.000000     O
    O   1.0     0.805347     0.633543     0.928591  Biso 1.000000     O
    O   1.0     0.633190     0.928358     0.633351  Biso 1.000000     O
    O   1.0     0.632891     0.805016     0.632864  Biso 1.000000     O
    O   1.0     0.805076     0.632845     0.632855  Biso 1.000000     O
    O   1.0     0.928449     0.633229     0.633232  Biso 1.000000     O
    O   1.0     0.633420     0.928670     0.805338  Biso 1.000000     O
    O   1.0     0.633421     0.805342     0.928664  Biso 1.000000     O
   Zn   1.0     0.293290     0.293193     0.119633  Biso 1.000000    Zn
   Zn   1.0     0.293688     0.293771     0.293771  Biso 1.000000    Zn
   Zn   1.0     0.119604     0.293292     0.293292  Biso 1.000000    Zn
   Zn   1.0     0.293290     0.119632     0.293193  Biso 1.000000    Zn
   Zn   1.0     0.706713     0.706804     0.880363  Biso 1.000000    Zn
   Zn   1.0     0.706315     0.706225     0.706225  Biso 1.000000    Zn
   Zn   1.0     0.706713     0.880364     0.706804  Biso 1.000000    Zn
   Zn   1.0     0.880398     0.706703     0.706705  Biso 1.000000    Zn
