#======================================================================

# CRYSTAL DATA

#----------------------------------------------------------------------

data_VESTA_phase_1


_pd_phase_name                         MOF
_cell_length_a                         18.41200
_cell_length_b                         18.42000
_cell_length_c                         18.42100
_cell_angle_alpha                      60.23300
_cell_angle_beta                       60.24000
_cell_angle_gamma                      60.24100
_symmetry_space_group_name_H-M         "P 1"
_symmetry_Int_Tables_number            1

loop_
_symmetry_equiv_pos_as_xyz
   "x, y, z"

loop_
   _atom_site_label
   _atom_site_occupancy
   _atom_site_fract_x
   _atom_site_fract_y
   _atom_site_fract_z
   _atom_site_adp_type
   _atom_site_B_iso_or_equiv
   _atom_site_type_symbol
    H   1.0     0.451167     0.451300     0.932402  Biso 1.000000     H
    H   1.0     0.452679     0.452484     0.164215  Biso 1.000000     H
    H   1.0     0.931949     0.164262     0.451544  Biso 1.000000     H
    H   1.0     0.164323     0.931912     0.451694  Biso 1.000000     H
    H   1.0     0.451699     0.931897     0.164251  Biso 1.000000     H
    H   1.0     0.451658     0.164264     0.931926  Biso 1.000000     H
    H   1.0     0.932249     0.451330     0.451310  Biso 1.000000     H
    H   1.0     0.164300     0.452533     0.452483  Biso 1.000000     H
    H   1.0     0.452669     0.164224     0.452463  Biso 1.000000     H
    H   1.0     0.451211     0.932379     0.451281  Biso 1.000000     H
    H   1.0     0.931936     0.451567     0.164252  Biso 1.000000     H
    H   1.0     0.164323     0.451708     0.931923  Biso 1.000000     H
    H   1.0     0.548866     0.548695     0.067585  Biso 1.000000     H
    H   1.0     0.547356     0.547508     0.835772  Biso 1.000000     H
    H   1.0     0.835702     0.068088     0.548296  Biso 1.000000     H
    H   1.0     0.068076     0.835738     0.548446  Biso 1.000000     H
    H   1.0     0.068093     0.548433     0.835740  Biso 1.000000     H
    H   1.0     0.835707     0.548290     0.068069  Biso 1.000000     H
    H   1.0     0.548830     0.067614     0.548694  Biso 1.000000     H
    H   1.0     0.547372     0.835768     0.547512  Biso 1.000000     H
    H   1.0     0.835735     0.547472     0.547497  Biso 1.000000     H
    H   1.0     0.067786     0.548674     0.548671  Biso 1.000000     H
    H   1.0     0.548346     0.068099     0.835736  Biso 1.000000     H
    H   1.0     0.548390     0.835732     0.068061  Biso 1.000000     H
    C   1.0     0.472945     0.473027     0.961239  Biso 1.000000     C
    C   1.0     0.473782     0.473693     0.092277  Biso 1.000000     C
    C   1.0     0.960989     0.092304     0.473168  Biso 1.000000     C
    C   1.0     0.092341     0.960962     0.473244  Biso 1.000000     C
    C   1.0     0.473272     0.960952     0.092297  Biso 1.000000     C
    C   1.0     0.473245     0.092306     0.960964  Biso 1.000000     C
    C   1.0     0.961174     0.473038     0.473017  Biso 1.000000     C
    C   1.0     0.092327     0.473711     0.473675  Biso 1.000000     C
    C   1.0     0.473789     0.092283     0.473667  Biso 1.000000     C
    C   1.0     0.472985     0.961227     0.473000  Biso 1.000000     C
    C   1.0     0.960985     0.473189     0.092298  Biso 1.000000     C
    C   1.0     0.092340     0.473261     0.960966  Biso 1.000000     C
    C   1.0     0.527090     0.526966     0.038748  Biso 1.000000     C
    C   1.0     0.526254     0.526299     0.907710  Biso 1.000000     C
    C   1.0     0.907684     0.039037     0.526747  Biso 1.000000     C
    C   1.0     0.039036     0.907695     0.526823  Biso 1.000000     C
    C   1.0     0.039044     0.526810     0.907693  Biso 1.000000     C
    C   1.0     0.907689     0.526737     0.039026  Biso 1.000000     C
    C   1.0     0.527057     0.038765     0.526974  Biso 1.000000     C
    C   1.0     0.526252     0.907710     0.526308  Biso 1.000000     C
    C   1.0     0.907708     0.526296     0.526304  Biso 1.000000     C
    C   1.0     0.038860     0.526968     0.526961  Biso 1.000000     C
    C   1.0     0.526774     0.039045     0.907690  Biso 1.000000     C
    C   1.0     0.526803     0.907690     0.039022  Biso 1.000000     C
    C   1.0     0.389058     0.389016     0.111364  Biso 1.000000     C
    C   1.0     0.446380     0.446357     0.053873  Biso 1.000000     C
    C   1.0     0.110961     0.110916     0.388579  Biso 1.000000     C
    C   1.0     0.053635     0.053609     0.446093  Biso 1.000000     C
    C   1.0     0.388639     0.110892     0.110919  Biso 1.000000     C
    C   1.0     0.446152     0.053599     0.053612  Biso 1.000000     C
    C   1.0     0.111263     0.389082     0.389041  Biso 1.000000     C
    C   1.0     0.053818     0.446378     0.446373  Biso 1.000000     C
    C   1.0     0.389072     0.111343     0.389008  Biso 1.000000     C
    C   1.0     0.446379     0.053861     0.446357  Biso 1.000000     C
    C   1.0     0.110951     0.388586     0.110926  Biso 1.000000     C
    C   1.0     0.053633     0.446106     0.053614  Biso 1.000000     C
    C   1.0     0.610974     0.610980     0.888623  Biso 1.000000     C
    C   1.0     0.553650     0.553641     0.946114  Biso 1.000000     C
    C   1.0     0.889065     0.889083     0.611412  Biso 1.000000     C
    C   1.0     0.946390     0.946391     0.553896  Biso 1.000000     C
    C   1.0     0.889078     0.611409     0.889066  Biso 1.000000     C
    C   1.0     0.946396     0.553891     0.946378  Biso 1.000000     C
    C   1.0     0.610966     0.888650     0.610969  Biso 1.000000     C
    C   1.0     0.553659     0.946132     0.553621  Biso 1.000000     C
    C   1.0     0.888772     0.610920     0.610941  Biso 1.000000     C
    C   1.0     0.946217     0.553622     0.553612  Biso 1.000000     C
    C   1.0     0.611402     0.889105     0.889067  Biso 1.000000     C
    C   1.0     0.553894     0.946398     0.946375  Biso 1.000000     C
    O   1.0     0.250089     0.250079     0.250092  Biso 1.000000     O
    O   1.0     0.749941     0.749917     0.749896  Biso 1.000000     O
    O   1.0     0.366827     0.366552     0.071867  Biso 1.000000     O
    O   1.0     0.367076     0.367302     0.195104  Biso 1.000000     O
    O   1.0     0.071406     0.194658     0.366487  Biso 1.000000     O
    O   1.0     0.194729     0.071368     0.366351  Biso 1.000000     O
    O   1.0     0.366526     0.071341     0.194656  Biso 1.000000     O
    O   1.0     0.366475     0.194635     0.071380  Biso 1.000000     O
    O   1.0     0.071711     0.366752     0.366724  Biso 1.000000     O
    O   1.0     0.195043     0.367184     0.367214  Biso 1.000000     O
    O   1.0     0.367068     0.195087     0.367312  Biso 1.000000     O
    O   1.0     0.366844     0.071837     0.366551  Biso 1.000000     O
    O   1.0     0.071391     0.366516     0.194663  Biso 1.000000     O
    O   1.0     0.194721     0.366350     0.071385  Biso 1.000000     O
    O   1.0     0.633187     0.633462     0.928120  Biso 1.000000     O
    O   1.0     0.632963     0.632687     0.804883  Biso 1.000000     O
    O   1.0     0.805296     0.928630     0.633642  Biso 1.000000     O
    O   1.0     0.928621     0.805341     0.633498  Biso 1.000000     O
    O   1.0     0.928637     0.633494     0.805329  Biso 1.000000     O
    O   1.0     0.805307     0.633626     0.928607  Biso 1.000000     O
    O   1.0     0.633194     0.928157     0.633426  Biso 1.000000     O
    O   1.0     0.632962     0.804905     0.632675  Biso 1.000000     O
    O   1.0     0.804991     0.632817     0.632768  Biso 1.000000     O
    O   1.0     0.928322     0.633238     0.633272  Biso 1.000000     O
    O   1.0     0.633493     0.928657     0.805329  Biso 1.000000     O
    O   1.0     0.633583     0.805363     0.928605  Biso 1.000000     O
   Zn   1.0     0.293295     0.293163     0.119713  Biso 1.000000    Zn
   Zn   1.0     0.293764     0.293823     0.293840  Biso 1.000000    Zn
   Zn   1.0     0.119651     0.293283     0.293276  Biso 1.000000    Zn
   Zn   1.0     0.293308     0.119692     0.293170  Biso 1.000000    Zn
   Zn   1.0     0.706736     0.706833     0.880275  Biso 1.000000    Zn
   Zn   1.0     0.706268     0.706173     0.706147  Biso 1.000000    Zn
   Zn   1.0     0.706719     0.880303     0.706817  Biso 1.000000    Zn
   Zn   1.0     0.880379     0.706713     0.706714  Biso 1.000000    Zn
