#======================================================================

# CRYSTAL DATA

#----------------------------------------------------------------------

data_VESTA_phase_1


_pd_phase_name                         MOF
_cell_length_a                         18.41600
_cell_length_b                         18.42600
_cell_length_c                         18.42700
_cell_angle_alpha                      60.17200
_cell_angle_beta                       60.20500
_cell_angle_gamma                      60.19900
_symmetry_space_group_name_H-M         "P 1"
_symmetry_Int_Tables_number            1

loop_
_symmetry_equiv_pos_as_xyz
   "x, y, z"

loop_
   _atom_site_label
   _atom_site_occupancy
   _atom_site_fract_x
   _atom_site_fract_y
   _atom_site_fract_z
   _atom_site_adp_type
   _atom_site_B_iso_or_equiv
   _atom_site_type_symbol
    H   1.0     0.451649     0.451391     0.931884  Biso 1.000000     H
    H   1.0     0.452130     0.452404     0.164213  Biso 1.000000     H
    H   1.0     0.932004     0.164292     0.452011  Biso 1.000000     H
    H   1.0     0.164418     0.931802     0.451795  Biso 1.000000     H
    H   1.0     0.451679     0.931871     0.164315  Biso 1.000000     H
    H   1.0     0.452036     0.164343     0.931830  Biso 1.000000     H
    H   1.0     0.931863     0.451588     0.451585  Biso 1.000000     H
    H   1.0     0.164370     0.452269     0.452336  Biso 1.000000     H
    H   1.0     0.451889     0.164384     0.452636  Biso 1.000000     H
    H   1.0     0.451882     0.932068     0.451150  Biso 1.000000     H
    H   1.0     0.931833     0.452201     0.164387  Biso 1.000000     H
    H   1.0     0.164276     0.451647     0.931967  Biso 1.000000     H
    H   1.0     0.548568     0.548401     0.067942  Biso 1.000000     H
    H   1.0     0.548057     0.547420     0.835611  Biso 1.000000     H
    H   1.0     0.835682     0.068126     0.548023  Biso 1.000000     H
    H   1.0     0.068094     0.835636     0.547836  Biso 1.000000     H
    H   1.0     0.067985     0.547920     0.835754  Biso 1.000000     H
    H   1.0     0.835540     0.548511     0.068174  Biso 1.000000     H
    H   1.0     0.547977     0.068086     0.548995  Biso 1.000000     H
    H   1.0     0.548003     0.835771     0.547474  Biso 1.000000     H
    H   1.0     0.835666     0.547771     0.547646  Biso 1.000000     H
    H   1.0     0.068173     0.548456     0.548393  Biso 1.000000     H
    H   1.0     0.548236     0.068170     0.835684  Biso 1.000000     H
    H   1.0     0.547799     0.835697     0.068167  Biso 1.000000     H
    C   1.0     0.473245     0.473014     0.960941  Biso 1.000000     C
    C   1.0     0.473549     0.473601     0.092237  Biso 1.000000     C
    C   1.0     0.961008     0.092303     0.473363  Biso 1.000000     C
    C   1.0     0.092420     0.960877     0.473243  Biso 1.000000     C
    C   1.0     0.473179     0.960943     0.092336  Biso 1.000000     C
    C   1.0     0.473389     0.092356     0.960910  Biso 1.000000     C
    C   1.0     0.960982     0.473176     0.473157  Biso 1.000000     C
    C   1.0     0.092370     0.473566     0.473586  Biso 1.000000     C
    C   1.0     0.473327     0.092400     0.473810  Biso 1.000000     C
    C   1.0     0.473307     0.961117     0.472951  Biso 1.000000     C
    C   1.0     0.960846     0.473546     0.092407  Biso 1.000000     C
    C   1.0     0.092278     0.473224     0.961010  Biso 1.000000     C
    C   1.0     0.526962     0.526787     0.038886  Biso 1.000000     C
    C   1.0     0.526648     0.526213     0.907588  Biso 1.000000     C
    C   1.0     0.907679     0.039053     0.526581  Biso 1.000000     C
    C   1.0     0.039091     0.907625     0.526473  Biso 1.000000     C
    C   1.0     0.038973     0.526588     0.907733  Biso 1.000000     C
    C   1.0     0.907539     0.526926     0.039129  Biso 1.000000     C
    C   1.0     0.526554     0.039036     0.527191  Biso 1.000000     C
    C   1.0     0.526547     0.907754     0.526317  Biso 1.000000     C
    C   1.0     0.907666     0.526472     0.526398  Biso 1.000000     C
    C   1.0     0.039053     0.526864     0.526825  Biso 1.000000     C
    C   1.0     0.526706     0.039096     0.907663  Biso 1.000000     C
    C   1.0     0.526464     0.907684     0.039089  Biso 1.000000     C
    C   1.0     0.388920     0.389106     0.110943  Biso 1.000000     C
    C   1.0     0.446345     0.446366     0.053617  Biso 1.000000     C
    C   1.0     0.111045     0.110810     0.388888  Biso 1.000000     C
    C   1.0     0.053705     0.053532     0.446355  Biso 1.000000     C
    C   1.0     0.388812     0.110891     0.110847  Biso 1.000000     C
    C   1.0     0.446282     0.053603     0.053583  Biso 1.000000     C
    C   1.0     0.111031     0.389026     0.389060  Biso 1.000000     C
    C   1.0     0.053714     0.446361     0.446371  Biso 1.000000     C
    C   1.0     0.389103     0.111103     0.388900  Biso 1.000000     C
    C   1.0     0.446357     0.053780     0.446341  Biso 1.000000     C
    C   1.0     0.110887     0.388786     0.110947  Biso 1.000000     C
    C   1.0     0.053543     0.446361     0.053673  Biso 1.000000     C
    C   1.0     0.611213     0.610771     0.888905  Biso 1.000000     C
    C   1.0     0.553849     0.553450     0.946210  Biso 1.000000     C
    C   1.0     0.889038     0.889138     0.611005  Biso 1.000000     C
    C   1.0     0.946394     0.946398     0.553488  Biso 1.000000     C
    C   1.0     0.888962     0.611349     0.889161  Biso 1.000000     C
    C   1.0     0.946277     0.553783     0.946465  Biso 1.000000     C
    C   1.0     0.610784     0.889029     0.611215  Biso 1.000000     C
    C   1.0     0.553512     0.946373     0.553793  Biso 1.000000     C
    C   1.0     0.888999     0.611009     0.610927  Biso 1.000000     C
    C   1.0     0.946322     0.553678     0.553612  Biso 1.000000     C
    C   1.0     0.611093     0.889135     0.889167  Biso 1.000000     C
    C   1.0     0.553597     0.946435     0.946418  Biso 1.000000     C
    O   1.0     0.250014     0.249972     0.249950  Biso 1.000000     O
    O   1.0     0.749975     0.750063     0.750041  Biso 1.000000     O
    O   1.0     0.366653     0.366874     0.071331  Biso 1.000000     O
    O   1.0     0.366972     0.367141     0.194730  Biso 1.000000     O
    O   1.0     0.071473     0.194580     0.366600  Biso 1.000000     O
    O   1.0     0.194827     0.071215     0.366782  Biso 1.000000     O
    O   1.0     0.366529     0.071300     0.194614  Biso 1.000000     O
    O   1.0     0.366708     0.194667     0.071248  Biso 1.000000     O
    O   1.0     0.071346     0.366835     0.366809  Biso 1.000000     O
    O   1.0     0.194858     0.367060     0.367095  Biso 1.000000     O
    O   1.0     0.367095     0.194902     0.366952  Biso 1.000000     O
    O   1.0     0.366965     0.071453     0.366581  Biso 1.000000     O
    O   1.0     0.071338     0.366564     0.194709  Biso 1.000000     O
    O   1.0     0.194662     0.366525     0.071343  Biso 1.000000     O
    O   1.0     0.633620     0.632826     0.928550  Biso 1.000000     O
    O   1.0     0.633000     0.632938     0.805113  Biso 1.000000     O
    O   1.0     0.805259     0.928756     0.632948  Biso 1.000000     O
    O   1.0     0.928585     0.805366     0.633504  Biso 1.000000     O
    O   1.0     0.928551     0.633348     0.805404  Biso 1.000000     O
    O   1.0     0.805184     0.633841     0.928724  Biso 1.000000     O
    O   1.0     0.632753     0.928647     0.633739  Biso 1.000000     O
    O   1.0     0.632985     0.805234     0.632937  Biso 1.000000     O
    O   1.0     0.805174     0.632965     0.632892  Biso 1.000000     O
    O   1.0     0.928675     0.633226     0.633161  Biso 1.000000     O
    O   1.0     0.633893     0.928715     0.805405  Biso 1.000000     O
    O   1.0     0.632752     0.805359     0.928766  Biso 1.000000     O
   Zn   1.0     0.293300     0.293179     0.119528  Biso 1.000000    Zn
   Zn   1.0     0.293615     0.293736     0.293606  Biso 1.000000    Zn
   Zn   1.0     0.119545     0.293296     0.293337  Biso 1.000000    Zn
   Zn   1.0     0.293381     0.119533     0.293154  Biso 1.000000    Zn
   Zn   1.0     0.706588     0.706865     0.880462  Biso 1.000000    Zn
   Zn   1.0     0.706401     0.706348     0.706312  Biso 1.000000    Zn
   Zn   1.0     0.706672     0.880503     0.706856  Biso 1.000000    Zn
   Zn   1.0     0.880444     0.706694     0.706717  Biso 1.000000    Zn
