#======================================================================

# CRYSTAL DATA

#----------------------------------------------------------------------

data_VESTA_phase_1


_pd_phase_name                         MOF
_cell_length_a                         18.40900
_cell_length_b                         18.41400
_cell_length_c                         18.41600
_cell_angle_alpha                      60.28400
_cell_angle_beta                       60.25700
_cell_angle_gamma                      60.25300
_symmetry_space_group_name_H-M         "P 1"
_symmetry_Int_Tables_number            1

loop_
_symmetry_equiv_pos_as_xyz
   "x, y, z"

loop_
   _atom_site_label
   _atom_site_occupancy
   _atom_site_fract_x
   _atom_site_fract_y
   _atom_site_fract_z
   _atom_site_adp_type
   _atom_site_B_iso_or_equiv
   _atom_site_type_symbol
    H   1.0     0.451275     0.451316     0.932204  Biso 1.000000     H
    H   1.0     0.452546     0.452495     0.164197  Biso 1.000000     H
    H   1.0     0.931817     0.164246     0.451820  Biso 1.000000     H
    H   1.0     0.164326     0.932000     0.451729  Biso 1.000000     H
    H   1.0     0.451773     0.932010     0.164217  Biso 1.000000     H
    H   1.0     0.451741     0.164248     0.932040  Biso 1.000000     H
    H   1.0     0.932054     0.451387     0.451350  Biso 1.000000     H
    H   1.0     0.164306     0.452460     0.452411  Biso 1.000000     H
    H   1.0     0.452509     0.164225     0.452486  Biso 1.000000     H
    H   1.0     0.451314     0.932189     0.451294  Biso 1.000000     H
    H   1.0     0.931808     0.451849     0.164219  Biso 1.000000     H
    H   1.0     0.164330     0.451732     0.932021  Biso 1.000000     H
    H   1.0     0.548699     0.548701     0.067799  Biso 1.000000     H
    H   1.0     0.547429     0.547522     0.835805  Biso 1.000000     H
    H   1.0     0.835632     0.068025     0.548284  Biso 1.000000     H
    H   1.0     0.068142     0.835779     0.548190  Biso 1.000000     H
    H   1.0     0.068155     0.548187     0.835787  Biso 1.000000     H
    H   1.0     0.835633     0.548298     0.067984  Biso 1.000000     H
    H   1.0     0.548655     0.067836     0.548700  Biso 1.000000     H
    H   1.0     0.547462     0.835799     0.547505  Biso 1.000000     H
    H   1.0     0.835659     0.547584     0.547572  Biso 1.000000     H
    H   1.0     0.067912     0.548656     0.548634  Biso 1.000000     H
    H   1.0     0.548198     0.068014     0.835789  Biso 1.000000     H
    H   1.0     0.548236     0.835776     0.067966  Biso 1.000000     H
    C   1.0     0.473024     0.473004     0.961140  Biso 1.000000     C
    C   1.0     0.473742     0.473660     0.092267  Biso 1.000000     C
    C   1.0     0.960888     0.092297     0.473326  Biso 1.000000     C
    C   1.0     0.092334     0.961011     0.473278  Biso 1.000000     C
    C   1.0     0.473266     0.961013     0.092280  Biso 1.000000     C
    C   1.0     0.473249     0.092298     0.961022  Biso 1.000000     C
    C   1.0     0.961048     0.473065     0.473047  Biso 1.000000     C
    C   1.0     0.092324     0.473667     0.473643  Biso 1.000000     C
    C   1.0     0.473670     0.092284     0.473702  Biso 1.000000     C
    C   1.0     0.472994     0.961141     0.473034  Biso 1.000000     C
    C   1.0     0.960882     0.473319     0.092282  Biso 1.000000     C
    C   1.0     0.092338     0.473262     0.961014  Biso 1.000000     C
    C   1.0     0.526949     0.527014     0.038863  Biso 1.000000     C
    C   1.0     0.526232     0.526358     0.907735  Biso 1.000000     C
    C   1.0     0.907624     0.039014     0.526733  Biso 1.000000     C
    C   1.0     0.039071     0.907728     0.526684  Biso 1.000000     C
    C   1.0     0.039081     0.526715     0.907724  Biso 1.000000     C
    C   1.0     0.907625     0.526769     0.038992  Biso 1.000000     C
    C   1.0     0.526977     0.038883     0.526958  Biso 1.000000     C
    C   1.0     0.526302     0.907741     0.526290  Biso 1.000000     C
    C   1.0     0.907641     0.526375     0.526342  Biso 1.000000     C
    C   1.0     0.038917     0.526977     0.526938  Biso 1.000000     C
    C   1.0     0.526707     0.039011     0.907726  Biso 1.000000     C
    C   1.0     0.526727     0.907725     0.038983  Biso 1.000000     C
    C   1.0     0.389093     0.389001     0.111150  Biso 1.000000     C
    C   1.0     0.446350     0.446383     0.053755  Biso 1.000000     C
    C   1.0     0.110879     0.110911     0.388714  Biso 1.000000     C
    C   1.0     0.053587     0.053615     0.446223  Biso 1.000000     C
    C   1.0     0.388697     0.110930     0.110946  Biso 1.000000     C
    C   1.0     0.446252     0.053613     0.053625  Biso 1.000000     C
    C   1.0     0.111176     0.389018     0.388973  Biso 1.000000     C
    C   1.0     0.053755     0.446374     0.446325  Biso 1.000000     C
    C   1.0     0.389072     0.111150     0.389005  Biso 1.000000     C
    C   1.0     0.446393     0.053754     0.446327  Biso 1.000000     C
    C   1.0     0.110872     0.388720     0.110918  Biso 1.000000     C
    C   1.0     0.053582     0.446261     0.053620  Biso 1.000000     C
    C   1.0     0.610868     0.611030     0.888852  Biso 1.000000     C
    C   1.0     0.553621     0.553638     0.946248  Biso 1.000000     C
    C   1.0     0.889080     0.889113     0.611289  Biso 1.000000     C
    C   1.0     0.946371     0.946411     0.553786  Biso 1.000000     C
    C   1.0     0.889090     0.611307     0.889089  Biso 1.000000     C
    C   1.0     0.946381     0.553770     0.946386  Biso 1.000000     C
    C   1.0     0.610896     0.888874     0.610990  Biso 1.000000     C
    C   1.0     0.553578     0.946271     0.553666  Biso 1.000000     C
    C   1.0     0.888789     0.611007     0.611029  Biso 1.000000     C
    C   1.0     0.946210     0.553665     0.553664  Biso 1.000000     C
    C   1.0     0.611278     0.889095     0.889058  Biso 1.000000     C
    C   1.0     0.553723     0.946411     0.946381  Biso 1.000000     C
    O   1.0     0.250017     0.250034     0.250030  Biso 1.000000     O
    O   1.0     0.749946     0.749992     0.749973  Biso 1.000000     O
    O   1.0     0.366642     0.366798     0.071582  Biso 1.000000     O
    O   1.0     0.367319     0.367030     0.194896  Biso 1.000000     O
    O   1.0     0.071301     0.194641     0.366404  Biso 1.000000     O
    O   1.0     0.194656     0.071365     0.366614  Biso 1.000000     O
    O   1.0     0.366529     0.071400     0.194654  Biso 1.000000     O
    O   1.0     0.366526     0.194651     0.071431  Biso 1.000000     O
    O   1.0     0.071559     0.366708     0.366678  Biso 1.000000     O
    O   1.0     0.194979     0.367125     0.367061  Biso 1.000000     O
    O   1.0     0.367321     0.194910     0.367000  Biso 1.000000     O
    O   1.0     0.366672     0.071571     0.366762  Biso 1.000000     O
    O   1.0     0.071295     0.366430     0.194634  Biso 1.000000     O
    O   1.0     0.194648     0.366643     0.071384  Biso 1.000000     O
    O   1.0     0.633305     0.633246     0.928421  Biso 1.000000     O
    O   1.0     0.632646     0.632996     0.805107  Biso 1.000000     O
    O   1.0     0.805303     0.928659     0.633400  Biso 1.000000     O
    O   1.0     0.928660     0.805384     0.633584  Biso 1.000000     O
    O   1.0     0.928666     0.633627     0.805373  Biso 1.000000     O
    O   1.0     0.805314     0.633351     0.928623  Biso 1.000000     O
    O   1.0     0.633288     0.928454     0.633240  Biso 1.000000     O
    O   1.0     0.632654     0.805115     0.632989  Biso 1.000000     O
    O   1.0     0.804987     0.632902     0.632939  Biso 1.000000     O
    O   1.0     0.928406     0.633304     0.633337  Biso 1.000000     O
    O   1.0     0.633417     0.928626     0.805351  Biso 1.000000     O
    O   1.0     0.633476     0.805374     0.928573  Biso 1.000000     O
   Zn   1.0     0.293187     0.293262     0.119691  Biso 1.000000    Zn
   Zn   1.0     0.293917     0.293709     0.293675  Biso 1.000000    Zn
   Zn   1.0     0.119569     0.293188     0.293171  Biso 1.000000    Zn
   Zn   1.0     0.293195     0.119671     0.293248  Biso 1.000000    Zn
   Zn   1.0     0.706778     0.706764     0.880312  Biso 1.000000    Zn
   Zn   1.0     0.706047     0.706317     0.706325  Biso 1.000000    Zn
   Zn   1.0     0.706762     0.880354     0.706757  Biso 1.000000    Zn
   Zn   1.0     0.880394     0.706835     0.706834  Biso 1.000000    Zn
