#======================================================================

# CRYSTAL DATA

#----------------------------------------------------------------------

data_VESTA_phase_1


_pd_phase_name                         MOF
_cell_length_a                         18.42900
_cell_length_b                         18.43500
_cell_length_c                         18.43500
_cell_angle_alpha                      60.10100
_cell_angle_beta                       60.13800
_cell_angle_gamma                      60.14000
_symmetry_space_group_name_H-M         "P 1"
_symmetry_Int_Tables_number            1

loop_
_symmetry_equiv_pos_as_xyz
   "x, y, z"

loop_
   _atom_site_label
   _atom_site_occupancy
   _atom_site_fract_x
   _atom_site_fract_y
   _atom_site_fract_z
   _atom_site_adp_type
   _atom_site_B_iso_or_equiv
   _atom_site_type_symbol
    H   1.0     0.451817     0.451489     0.931876  Biso 1.000000     H
    H   1.0     0.451867     0.452381     0.164372  Biso 1.000000     H
    H   1.0     0.931949     0.164389     0.452013  Biso 1.000000     H
    H   1.0     0.164358     0.931763     0.451730  Biso 1.000000     H
    H   1.0     0.451856     0.931804     0.164387  Biso 1.000000     H
    H   1.0     0.451875     0.164390     0.931713  Biso 1.000000     H
    H   1.0     0.931816     0.451688     0.451667  Biso 1.000000     H
    H   1.0     0.164361     0.452163     0.452225  Biso 1.000000     H
    H   1.0     0.451854     0.164375     0.452411  Biso 1.000000     H
    H   1.0     0.451832     0.931897     0.451447  Biso 1.000000     H
    H   1.0     0.931948     0.452009     0.164387  Biso 1.000000     H
    H   1.0     0.164361     0.451744     0.931737  Biso 1.000000     H
    H   1.0     0.548169     0.548519     0.068113  Biso 1.000000     H
    H   1.0     0.548119     0.547627     0.835617  Biso 1.000000     H
    H   1.0     0.835628     0.068245     0.548262  Biso 1.000000     H
    H   1.0     0.068037     0.835620     0.547978  Biso 1.000000     H
    H   1.0     0.068037     0.548002     0.835602  Biso 1.000000     H
    H   1.0     0.835623     0.548267     0.068253  Biso 1.000000     H
    H   1.0     0.548153     0.068112     0.548543  Biso 1.000000     H
    H   1.0     0.548129     0.835635     0.547579  Biso 1.000000     H
    H   1.0     0.835625     0.547846     0.547764  Biso 1.000000     H
    H   1.0     0.068169     0.548321     0.548323  Biso 1.000000     H
    H   1.0     0.548132     0.068205     0.835602  Biso 1.000000     H
    H   1.0     0.548113     0.835619     0.068275  Biso 1.000000     H
    C   1.0     0.473307     0.473129     0.960945  Biso 1.000000     C
    C   1.0     0.473335     0.473626     0.092365  Biso 1.000000     C
    C   1.0     0.960971     0.092378     0.473415  Biso 1.000000     C
    C   1.0     0.092357     0.960874     0.473255  Biso 1.000000     C
    C   1.0     0.473320     0.960903     0.092373  Biso 1.000000     C
    C   1.0     0.473334     0.092381     0.960848  Biso 1.000000     C
    C   1.0     0.960929     0.473228     0.473215  Biso 1.000000     C
    C   1.0     0.092355     0.473498     0.473532  Biso 1.000000     C
    C   1.0     0.473334     0.092369     0.473636  Biso 1.000000     C
    C   1.0     0.473316     0.960967     0.473093  Biso 1.000000     C
    C   1.0     0.960970     0.473416     0.092375  Biso 1.000000     C
    C   1.0     0.092360     0.473274     0.960851  Biso 1.000000     C
    C   1.0     0.526677     0.526881     0.039043  Biso 1.000000     C
    C   1.0     0.526650     0.526383     0.907624  Biso 1.000000     C
    C   1.0     0.907629     0.039134     0.526737  Biso 1.000000     C
    C   1.0     0.039014     0.907631     0.526577  Biso 1.000000     C
    C   1.0     0.039015     0.526595     0.907615  Biso 1.000000     C
    C   1.0     0.907624     0.526737     0.039138  Biso 1.000000     C
    C   1.0     0.526671     0.039043     0.526894  Biso 1.000000     C
    C   1.0     0.526653     0.907641     0.526351  Biso 1.000000     C
    C   1.0     0.907630     0.526508     0.526460  Biso 1.000000     C
    C   1.0     0.039056     0.526777     0.526777  Biso 1.000000     C
    C   1.0     0.526664     0.039106     0.907615  Biso 1.000000     C
    C   1.0     0.526650     0.907628     0.039141  Biso 1.000000     C
    C   1.0     0.388957     0.389072     0.111017  Biso 1.000000     C
    C   1.0     0.446308     0.446399     0.053665  Biso 1.000000     C
    C   1.0     0.111024     0.110874     0.388885  Biso 1.000000     C
    C   1.0     0.053673     0.053582     0.446330  Biso 1.000000     C
    C   1.0     0.388910     0.110904     0.110841  Biso 1.000000     C
    C   1.0     0.446323     0.053612     0.053570  Biso 1.000000     C
    C   1.0     0.110986     0.389058     0.389086  Biso 1.000000     C
    C   1.0     0.053658     0.446367     0.446391  Biso 1.000000     C
    C   1.0     0.388979     0.111032     0.389048  Biso 1.000000     C
    C   1.0     0.446316     0.053678     0.446389  Biso 1.000000     C
    C   1.0     0.111021     0.388900     0.110855  Biso 1.000000     C
    C   1.0     0.053671     0.446334     0.053567  Biso 1.000000     C
    C   1.0     0.611023     0.610943     0.888972  Biso 1.000000     C
    C   1.0     0.553676     0.553611     0.946324  Biso 1.000000     C
    C   1.0     0.888962     0.889135     0.611104  Biso 1.000000     C
    C   1.0     0.946312     0.946427     0.553657  Biso 1.000000     C
    C   1.0     0.888964     0.611108     0.889135  Biso 1.000000     C
    C   1.0     0.946313     0.553671     0.946422  Biso 1.000000     C
    C   1.0     0.611016     0.888977     0.610931  Biso 1.000000     C
    C   1.0     0.553671     0.946331     0.553599  Biso 1.000000     C
    C   1.0     0.888999     0.610938     0.610916  Biso 1.000000     C
    C   1.0     0.946327     0.553637     0.553603  Biso 1.000000     C
    C   1.0     0.611061     0.889105     0.889147  Biso 1.000000     C
    C   1.0     0.553656     0.946397     0.946419  Biso 1.000000     C
    O   1.0     0.250037     0.249980     0.249954  Biso 1.000000     O
    O   1.0     0.749948     0.750028     0.750035  Biso 1.000000     O
    O   1.0     0.366861     0.366795     0.071368  Biso 1.000000     O
    O   1.0     0.366861     0.367142     0.194835  Biso 1.000000     O
    O   1.0     0.071453     0.194676     0.366752  Biso 1.000000     O
    O   1.0     0.194813     0.071245     0.366718  Biso 1.000000     O
    O   1.0     0.366794     0.071286     0.194655  Biso 1.000000     O
    O   1.0     0.366765     0.194713     0.071207  Biso 1.000000     O
    O   1.0     0.071338     0.366890     0.366861  Biso 1.000000     O
    O   1.0     0.194809     0.367040     0.367113  Biso 1.000000     O
    O   1.0     0.366928     0.194849     0.367079  Biso 1.000000     O
    O   1.0     0.366829     0.071388     0.366818  Biso 1.000000     O
    O   1.0     0.071453     0.366751     0.194660  Biso 1.000000     O
    O   1.0     0.194809     0.366775     0.071218  Biso 1.000000     O
    O   1.0     0.633131     0.633208     0.928620  Biso 1.000000     O
    O   1.0     0.633130     0.632862     0.805153  Biso 1.000000     O
    O   1.0     0.805173     0.928763     0.633274  Biso 1.000000     O
    O   1.0     0.928533     0.805333     0.633240  Biso 1.000000     O
    O   1.0     0.928531     0.633262     0.805329  Biso 1.000000     O
    O   1.0     0.805176     0.633238     0.928772  Biso 1.000000     O
    O   1.0     0.633147     0.928620     0.633180  Biso 1.000000     O
    O   1.0     0.633047     0.805160     0.632919  Biso 1.000000     O
    O   1.0     0.805176     0.632981     0.632865  Biso 1.000000     O
    O   1.0     0.928647     0.633131     0.633116  Biso 1.000000     O
    O   1.0     0.633207     0.928723     0.805334  Biso 1.000000     O
    O   1.0     0.633237     0.805296     0.928782  Biso 1.000000     O
   Zn   1.0     0.293443     0.293268     0.119448  Biso 1.000000    Zn
   Zn   1.0     0.293486     0.293668     0.293667  Biso 1.000000    Zn
   Zn   1.0     0.119556     0.293422     0.293398  Biso 1.000000    Zn
   Zn   1.0     0.293452     0.119484     0.293243  Biso 1.000000    Zn
   Zn   1.0     0.706543     0.706741     0.880541  Biso 1.000000    Zn
   Zn   1.0     0.706498     0.706342     0.706321  Biso 1.000000    Zn
   Zn   1.0     0.706535     0.880525     0.706747  Biso 1.000000    Zn
   Zn   1.0     0.880428     0.706589     0.706590  Biso 1.000000    Zn
