#======================================================================

# CRYSTAL DATA

#----------------------------------------------------------------------

data_VESTA_phase_1


_pd_phase_name                         MOF
_cell_length_a                         12.93000
_cell_length_b                         13.18000
_cell_length_c                         16.52000
_cell_angle_alpha                      111.36100
_cell_angle_beta                       108.27800
_cell_angle_gamma                      93.77800
_symmetry_space_group_name_H-M         "P 1"
_symmetry_Int_Tables_number            1

loop_
_symmetry_equiv_pos_as_xyz
   "x, y, z"

loop_
   _atom_site_label
   _atom_site_occupancy
   _atom_site_fract_x
   _atom_site_fract_y
   _atom_site_fract_z
   _atom_site_adp_type
   _atom_site_B_iso_or_equiv
   _atom_site_type_symbol
    H   1.0     0.449950     0.692516     0.440039  Biso 1.000000     H
    H   1.0     0.129958     0.590635     0.243935  Biso 1.000000     H
    H   1.0     0.384042     0.792896     0.568535  Biso 1.000000     H
    H   1.0     0.050152     0.686622     0.363582  Biso 1.000000     H
    H   1.0     0.148017     0.748774     0.583543  Biso 1.000000     H
    H   1.0     0.236954     0.873841     0.611801  Biso 1.000000     H
    H   1.0     0.270667     0.663009     0.175460  Biso 1.000000     H
    H   1.0     0.076178     0.378247    -0.052071  Biso 1.000000     H
    H   1.0     0.201754     0.784138     0.092578  Biso 1.000000     H
    H   1.0     0.000259     0.468766     0.830741  Biso 1.000000     H
    H   1.0     0.119441     0.719578     0.863646  Biso 1.000000     H
    H   1.0    -0.015746     0.639500     0.820201  Biso 1.000000     H
    H   1.0     0.342527     0.416619     0.120079  Biso 1.000000     H
    H   1.0     0.659688     0.576750     0.178107  Biso 1.000000     H
    H   1.0     0.368359     0.237496     0.013422  Biso 1.000000     H
    H   1.0     0.697373     0.406376     0.070279  Biso 1.000000     H
    H   1.0     0.640284     0.202268     0.941396  Biso 1.000000     H
    H   1.0     0.499353     0.169163     0.869147  Biso 1.000000     H
    H   1.0     0.536526     0.506141     0.329391  Biso 1.000000     H
    H   1.0     0.712449     0.775021     0.578326  Biso 1.000000     H
    H   1.0     0.658730     0.381521     0.374118  Biso 1.000000     H
    H   1.0     0.843177     0.662651     0.633481  Biso 1.000000     H
    H   1.0     0.864225     0.466165     0.614319  Biso 1.000000     H
    H   1.0     0.792230     0.353235     0.506073  Biso 1.000000     H
    H   1.0     0.577448     0.199191     0.537100  Biso 1.000000     H
    H   1.0     0.897883     0.299826     0.732531  Biso 1.000000     H
    H   1.0     0.642667     0.098788     0.408218  Biso 1.000000     H
    H   1.0     0.976996     0.204050     0.612455  Biso 1.000000     H
    H   1.0     0.878886     0.141474     0.392740  Biso 1.000000     H
    H   1.0     0.789000     0.016917     0.364388  Biso 1.000000     H
    H   1.0     0.752741     0.236787     0.799956  Biso 1.000000     H
    H   1.0     0.944649     0.518556     0.000000  Biso 1.000000     H
    H   1.0     0.819137     0.112640     0.880414  Biso 1.000000     H
    H   1.0     0.000000     0.424936     0.146861  Biso 1.000000     H
    H   1.0     0.897670     0.173302     0.109244  Biso 1.000000     H
    H   1.0     0.000000     0.252409     0.153979  Biso 1.000000     H
    H   1.0     0.681914     0.480455     0.857244  Biso 1.000000     H
    H   1.0     0.364792     0.320630     0.799754  Biso 1.000000     H
    H   1.0     0.656167     0.659799     0.963459  Biso 1.000000     H
    H   1.0     0.327282     0.491316     0.907337  Biso 1.000000     H
    H   1.0     0.384237     0.695906     0.035338  Biso 1.000000     H
    H   1.0     0.525086     0.728976     0.107863  Biso 1.000000     H
    H   1.0     0.488964     0.383735     0.647351  Biso 1.000000     H
    H   1.0     0.315088     0.117060     0.396263  Biso 1.000000     H
    H   1.0     0.367336     0.509094     0.603378  Biso 1.000000     H
    H   1.0     0.184933     0.230307     0.341796  Biso 1.000000     H
    H   1.0     0.163305     0.426782     0.362729  Biso 1.000000     H
    H   1.0     0.235703     0.539091     0.471254  Biso 1.000000     H
    C   1.0     0.361339     0.692192     0.425557  Biso 1.000000     C
    C   1.0     0.184127     0.636017     0.317093  Biso 1.000000     C
    C   1.0     0.324267     0.747695     0.497481  Biso 1.000000     C
    C   1.0     0.139516     0.689654     0.384221  Biso 1.000000     C
    C   1.0     0.210802     0.747560     0.477331  Biso 1.000000     C
    C   1.0     0.168966     0.806986     0.554766  Biso 1.000000     C
    C   1.0     0.069438     0.854999     0.522839  Biso 1.000000     C
    C   1.0     0.109046     0.046603     0.515743  Biso 1.000000     C
    C   1.0     0.018260     0.090437     0.481902  Biso 1.000000     C
    C   1.0     0.210163     0.626662     0.103952  Biso 1.000000     C
    C   1.0     0.103379     0.468694    -0.022199  Biso 1.000000     C
    C   1.0     0.171656     0.694124     0.057271  Biso 1.000000     C
    C   1.0     0.061011     0.511527     0.901621  Biso 1.000000     C
    C   1.0     0.094842     0.644999    -0.034551  Biso 1.000000     C
    C   1.0     0.052893     0.694237     0.884752  Biso 1.000000     C
    C   1.0     0.013097     0.796422     0.932756  Biso 1.000000     C
    C   1.0     0.960361     0.788116     0.947730  Biso 1.000000     C
    C   1.0     0.919454     0.899333     0.011716  Biso 1.000000     C
    C   1.0     0.421207     0.410415     0.108832  Biso 1.000000     C
    C   1.0     0.596505     0.499685     0.140049  Biso 1.000000     C
    C   1.0     0.435608     0.310862     0.048400  Biso 1.000000     C
    C   1.0     0.617896     0.404452     0.080282  Biso 1.000000     C
    C   1.0     0.535961     0.306885     0.032701  Biso 1.000000     C
    C   1.0     0.555321     0.185791     0.940331  Biso 1.000000     C
    C   1.0     0.538987     0.082786     0.958422  Biso 1.000000     C
    C   1.0     0.615594     0.088029     0.057515  Biso 1.000000     C
    C   1.0     0.576578     0.903572     0.074973  Biso 1.000000     C
    C   1.0     0.605187     0.537837     0.396712  Biso 1.000000     C
    C   1.0     0.702907     0.687076     0.534673  Biso 1.000000     C
    C   1.0     0.673852     0.468561     0.421655  Biso 1.000000     C
    C   1.0     0.775936     0.624333     0.565417  Biso 1.000000     C
    C   1.0     0.761650     0.511925     0.508096  Biso 1.000000     C
    C   1.0     0.838098     0.439705     0.538548  Biso 1.000000     C
    C   1.0     0.940399     0.443455     0.513119  Biso 1.000000     C
    C   1.0     0.938606     0.376694     0.424574  Biso 1.000000     C
    C   1.0     0.000000     0.379008     0.401171  Biso 1.000000     C
    C   1.0     0.665993     0.199272     0.551369  Biso 1.000000     C
    C   1.0     0.843414     0.254775     0.659422  Biso 1.000000     C
    C   1.0     0.702690     0.143729     0.479202  Biso 1.000000     C
    C   1.0     0.887667     0.201138     0.592050  Biso 1.000000     C
    C   1.0     0.816035     0.143334     0.499033  Biso 1.000000     C
    C   1.0     0.857400     0.083325     0.421412  Biso 1.000000     C
    C   1.0     0.956528     0.034626     0.453133  Biso 1.000000     C
    C   1.0     0.916953     0.842950     0.460143  Biso 1.000000     C
    C   1.0     0.000000     0.799144     0.494069  Biso 1.000000     C
    C   1.0     0.812034     0.271704     0.871898  Biso 1.000000     C
    C   1.0     0.917427     0.428034     0.000000  Biso 1.000000     C
    C   1.0     0.849191     0.202577     0.917227  Biso 1.000000     C
    C   1.0     0.958341     0.383462     0.075394  Biso 1.000000     C
    C   1.0     0.924534     0.249930     0.000000  Biso 1.000000     C
    C   1.0     0.964875     0.198846     0.088909  Biso 1.000000     C
    C   1.0     0.000000     0.096605     0.040159  Biso 1.000000     C
    C   1.0     0.056677     0.104889     0.025004  Biso 1.000000     C
    C   1.0     0.097588    -0.006312     0.961027  Biso 1.000000     C
    C   1.0     0.603242     0.486734     0.868480  Biso 1.000000     C
    C   1.0     0.428026     0.397652     0.837615  Biso 1.000000     C
    C   1.0     0.588932     0.586450     0.928752  Biso 1.000000     C
    C   1.0     0.406721     0.493065     0.897256  Biso 1.000000     C
    C   1.0     0.488648     0.590630     0.944534  Biso 1.000000     C
    C   1.0     0.469316     0.712048     0.036543  Biso 1.000000     C
    C   1.0     0.486008     0.814691     0.018036  Biso 1.000000     C
    C   1.0     0.409553     0.809276     0.918767  Biso 1.000000     C
    C   1.0     0.448585    -0.006248     0.901321  Biso 1.000000     C
    C   1.0     0.420940     0.352712     0.579701  Biso 1.000000     C
    C   1.0     0.324285     0.204685     0.440578  Biso 1.000000     C
    C   1.0     0.352557     0.422403     0.555195  Biso 1.000000     C
    C   1.0     0.251577     0.267915     0.410217  Biso 1.000000     C
    C   1.0     0.265480     0.379923     0.468362  Biso 1.000000     C
    C   1.0     0.189460     0.452744     0.438448  Biso 1.000000     C
    C   1.0     0.087246     0.449169     0.464016  Biso 1.000000     C
    C   1.0     0.088835     0.515979     0.552339  Biso 1.000000     C
    C   1.0    -0.005181     0.513358     0.576086  Biso 1.000000     C
    N   1.0     0.293199     0.636520     0.335794  Biso 1.000000     N
    N   1.0     0.177151     0.515131     0.065947  Biso 1.000000     N
    N   1.0     0.500200     0.504453     0.154890  Biso 1.000000     N
    N   1.0     0.618266     0.645826     0.451770  Biso 1.000000     N
    N   1.0     0.734434     0.254529     0.641080  Biso 1.000000     N
    N   1.0     0.845093     0.383281     0.911792  Biso 1.000000     N
    N   1.0     0.524245     0.392694     0.822625  Biso 1.000000     N
    N   1.0     0.408255     0.245107     0.523847  Biso 1.000000     N
    F   1.0     0.212758     0.104619     0.542326  Biso 1.000000     F
    F   1.0     0.037696     0.190621     0.477875  Biso 1.000000     F
    F   1.0     0.900149     0.686011     0.921716  Biso 1.000000     F
    F   1.0     0.821198     0.884480     0.023644  Biso 1.000000     F
    F   1.0     0.706220     0.170729     0.115282  Biso 1.000000     F
    F   1.0     0.655180     0.898803     0.149731  Biso 1.000000     F
    F   1.0     0.842755     0.305716     0.359389  Biso 1.000000     F
    F   1.0     0.000000     0.310085     0.314147  Biso 1.000000     F
    F   1.0     0.813431     0.784546     0.433516  Biso 1.000000     F
    F   1.0     0.988108     0.698975     0.498133  Biso 1.000000     F
    F   1.0     0.116832     0.207028     0.050998  Biso 1.000000     F
    F   1.0     0.195803     0.008475     0.949038  Biso 1.000000     F
    F   1.0     0.319131     0.726433     0.860856  Biso 1.000000     F
    F   1.0     0.370172    -0.001632     0.826389  Biso 1.000000     F
    F   1.0     0.184209     0.587521     0.617338  Biso 1.000000     F
    F   1.0     0.004217     0.582004     0.663734  Biso 1.000000     F
   Cd   1.0     0.523268     0.753001     0.293335  Biso 1.000000    Cd
   Cd   1.0     0.500689     0.140255     0.683328  Biso 1.000000    Cd
