#======================================================================

# CRYSTAL DATA

#----------------------------------------------------------------------

data_VESTA_phase_1


_pd_phase_name                         MOF
_cell_length_a                         13.92200
_cell_length_b                         15.23000
_cell_length_c                         19.53300
_cell_angle_alpha                      89.98700
_cell_angle_beta                       90.00200
_cell_angle_gamma                      90.01600
_symmetry_space_group_name_H-M         "P 1"
_symmetry_Int_Tables_number            1

loop_
_symmetry_equiv_pos_as_xyz
   "x, y, z"

loop_
   _atom_site_label
   _atom_site_occupancy
   _atom_site_fract_x
   _atom_site_fract_y
   _atom_site_fract_z
   _atom_site_adp_type
   _atom_site_B_iso_or_equiv
   _atom_site_type_symbol
    H   1.0     0.239147     0.537562     0.104032  Biso 1.000000     H
    H   1.0     0.040940     0.724010     0.636922  Biso 1.000000     H
    H   1.0     0.413783     0.717339     0.055223  Biso 1.000000     H
    H   1.0     0.260699     0.678434     0.104230  Biso 1.000000     H
    H   1.0     0.570555     0.618881     0.909115  Biso 1.000000     H
    H   1.0     0.159212     0.583576     0.698676  Biso 1.000000     H
    H   1.0     0.483862     0.544415     0.111755  Biso 1.000000     H
    H   1.0     0.542729     0.647378     0.105571  Biso 1.000000     H
    H   1.0     0.375352     0.553385     0.234242  Biso 1.000000     H
    H   1.0     0.616552     0.551670     0.018656  Biso 1.000000     H
    H   1.0     0.169013     0.556753     0.824666  Biso 1.000000     H
    H   1.0     0.432486     0.019876     0.225440  Biso 1.000000     H
    H   1.0     0.302897     0.964620     0.887216  Biso 1.000000     H
    H   1.0     0.256099     0.817152     0.926314  Biso 1.000000     H
    H   1.0     0.406569     0.636775     0.890340  Biso 1.000000     H
    H   1.0     0.412893     0.732222     0.942680  Biso 1.000000     H
    H   1.0     0.321859     0.814922     0.096420  Biso 1.000000     H
    H   1.0     0.506532     0.473662     0.932799  Biso 1.000000     H
    H   1.0     0.491566     0.435012     0.017883  Biso 1.000000     H
    H   1.0     0.475084     0.909475     0.315241  Biso 1.000000     H
    H   1.0     0.251742     0.891075     0.678276  Biso 1.000000     H
    H   1.0     0.186567     0.805008     0.618511  Biso 1.000000     H
    H   1.0     0.337490     0.489106     0.026723  Biso 1.000000     H
    H   1.0     0.339335     0.501145     0.936539  Biso 1.000000     H
    H   1.0     0.453763     0.612410     0.339428  Biso 1.000000     H
    H   1.0     0.331339     0.024327     0.011365  Biso 1.000000     H
    H   1.0     0.394397     0.921562     0.018074  Biso 1.000000     H
    H   1.0     0.268750     0.927089     0.038849  Biso 1.000000     H
    H   1.0     0.255670     0.616719     0.603291  Biso 1.000000     H
    H   1.0     0.198504     0.638282     0.491809  Biso 1.000000     H
    H   1.0     0.204134     0.753440     0.497234  Biso 1.000000     H
    H   1.0     0.334833     0.684392     0.419133  Biso 1.000000     H
    H   1.0     0.476237     0.623904     0.476231  Biso 1.000000     H
    H   1.0     0.350022     0.835576     0.463640  Biso 1.000000     H
    H   1.0     0.463333     0.784054     0.471946  Biso 1.000000     H
    H   1.0     0.499117     0.668477     0.589156  Biso 1.000000     H
    H   1.0     0.414983     0.586002     0.613430  Biso 1.000000     H
    H   1.0     0.330895     0.846508     0.583072  Biso 1.000000     H
    H   1.0     0.453548     0.819394     0.589704  Biso 1.000000     H
    H   1.0     0.336486     0.143810     0.767551  Biso 1.000000     H
    H   1.0     0.259750     0.097533     0.831493  Biso 1.000000     H
    H   1.0     0.386918     0.074056     0.832117  Biso 1.000000     H
    H   1.0     0.260869     0.462458     0.604010  Biso 1.000000     H
    H   1.0     0.459087     0.276123     0.136903  Biso 1.000000     H
    H   1.0     0.086222     0.282695     0.555225  Biso 1.000000     H
    H   1.0     0.239308     0.321601     0.604226  Biso 1.000000     H
    H   1.0     0.929426     0.381178     0.409097  Biso 1.000000     H
    H   1.0     0.340816     0.416472     0.198660  Biso 1.000000     H
    H   1.0     0.016135     0.455605     0.611713  Biso 1.000000     H
    H   1.0     0.957276     0.352639     0.605551  Biso 1.000000     H
    H   1.0     0.124649     0.446608     0.734212  Biso 1.000000     H
    H   1.0     0.883444     0.448365     0.518614  Biso 1.000000     H
    H   1.0     0.330976     0.443268     0.324642  Biso 1.000000     H
    H   1.0     0.067505     0.980121     0.725476  Biso 1.000000     H
    H   1.0     0.197054     0.035386     0.387246  Biso 1.000000     H
    H   1.0     0.243848     0.182842     0.426327  Biso 1.000000     H
    H   1.0     0.093411     0.363290     0.390328  Biso 1.000000     H
    H   1.0     0.087093     0.267834     0.442691  Biso 1.000000     H
    H   1.0     0.178150     0.185116     0.596437  Biso 1.000000     H
    H   1.0     0.993449     0.526391     0.432744  Biso 1.000000     H
    H   1.0     0.008422     0.565024     0.517812  Biso 1.000000     H
    H   1.0     0.024919     0.090488     0.815262  Biso 1.000000     H
    H   1.0     0.248294     0.108985     0.178304  Biso 1.000000     H
    H   1.0     0.313535     0.195064     0.118539  Biso 1.000000     H
    H   1.0     0.162506     0.510929     0.526670  Biso 1.000000     H
    H   1.0     0.160649     0.498917     0.436495  Biso 1.000000     H
    H   1.0     0.046241     0.387547     0.839405  Biso 1.000000     H
    H   1.0     0.168632     0.975753     0.511400  Biso 1.000000     H
    H   1.0     0.105589     0.078522     0.518101  Biso 1.000000     H
    H   1.0     0.231239     0.072971     0.538876  Biso 1.000000     H
    H   1.0     0.244285     0.383310     0.103272  Biso 1.000000     H
    H   1.0     0.301447     0.361777     0.991789  Biso 1.000000     H
    H   1.0     0.295849     0.246613    -0.002752  Biso 1.000000     H
    H   1.0     0.165105     0.315676     0.919139  Biso 1.000000     H
    H   1.0     0.023724     0.376151     0.976243  Biso 1.000000     H
    H   1.0     0.149944     0.164471     0.963654  Biso 1.000000     H
    H   1.0     0.036633     0.215978     0.971989  Biso 1.000000     H
    H   1.0     0.000873     0.331459     0.089166  Biso 1.000000     H
    H   1.0     0.084965     0.413953     0.113448  Biso 1.000000     H
    H   1.0     0.169181     0.153501     0.083090  Biso 1.000000     H
    H   1.0     0.046515     0.180549     0.089751  Biso 1.000000     H
    H   1.0     0.163504     0.856226     0.267607  Biso 1.000000     H
    H   1.0     0.240231     0.902485     0.331550  Biso 1.000000     H
    H   1.0     0.113065     0.925964     0.332152  Biso 1.000000     H
    H   1.0     0.760590     0.037465     0.396012  Biso 1.000000     H
    H   1.0     0.959110     0.223934     0.863070  Biso 1.000000     H
    H   1.0     0.586222     0.217320     0.444739  Biso 1.000000     H
    H   1.0     0.739285     0.178408     0.395738  Biso 1.000000     H
    H   1.0     0.429364     0.118825     0.590867  Biso 1.000000     H
    H   1.0     0.840816     0.083572     0.801334  Biso 1.000000     H
    H   1.0     0.516045     0.044405     0.388257  Biso 1.000000     H
    H   1.0     0.457237     0.147367     0.394407  Biso 1.000000     H
    H   1.0     0.624606     0.053443     0.265733  Biso 1.000000     H
    H   1.0     0.383344     0.051643     0.481342  Biso 1.000000     H
    H   1.0     0.830958     0.056773     0.675355  Biso 1.000000     H
    H   1.0     0.567505     0.519924     0.274543  Biso 1.000000     H
    H   1.0     0.697070     0.464596     0.612746  Biso 1.000000     H
    H   1.0     0.743864     0.317168     0.573666  Biso 1.000000     H
    H   1.0     0.593356     0.136747     0.609641  Biso 1.000000     H
    H   1.0     0.587081     0.232192     0.557268  Biso 1.000000     H
    H   1.0     0.678151     0.314920     0.403546  Biso 1.000000     H
    H   1.0     0.493292     0.973665     0.567231  Biso 1.000000     H
    H   1.0     0.508252     0.935018     0.482168  Biso 1.000000     H
    H   1.0     0.524914     0.409535     0.184735  Biso 1.000000     H
    H   1.0     0.748282     0.391012     0.821691  Biso 1.000000     H
    H   1.0     0.813584     0.304987     0.881443  Biso 1.000000     H
    H   1.0     0.662362     0.989111     0.473320  Biso 1.000000     H
    H   1.0     0.660513     0.001117     0.563490  Biso 1.000000     H
    H   1.0     0.546216     0.112493     0.160543  Biso 1.000000     H
    H   1.0     0.668643     0.524286     0.488620  Biso 1.000000     H
    H   1.0     0.605599     0.421460     0.481903  Biso 1.000000     H
    H   1.0     0.731248     0.427086     0.461130  Biso 1.000000     H
    H   1.0     0.744319     0.116717     0.896750  Biso 1.000000     H
    H   1.0     0.801514     0.138298     0.008213  Biso 1.000000     H
    H   1.0     0.795930     0.253464     0.000000  Biso 1.000000     H
    H   1.0     0.665205     0.184373     0.080877  Biso 1.000000     H
    H   1.0     0.523871     0.123691     0.023806  Biso 1.000000     H
    H   1.0     0.649975     0.335547     0.036333  Biso 1.000000     H
    H   1.0     0.536685     0.283946     0.028008  Biso 1.000000     H
    H   1.0     0.500924     0.168398     0.910900  Biso 1.000000     H
    H   1.0     0.585019     0.085965     0.886584  Biso 1.000000     H
    H   1.0     0.669212     0.346472     0.916898  Biso 1.000000     H
    H   1.0     0.546542     0.319375     0.910242  Biso 1.000000     H
    H   1.0     0.663507     0.643759     0.732378  Biso 1.000000     H
    H   1.0     0.740244     0.597538     0.668445  Biso 1.000000     H
    H   1.0     0.613078     0.573992     0.667828  Biso 1.000000     H
    H   1.0     0.739434     0.962573     0.895985  Biso 1.000000     H
    H   1.0     0.540918     0.775994     0.363055  Biso 1.000000     H
    H   1.0     0.913790     0.782704     0.944741  Biso 1.000000     H
    H   1.0     0.760722     0.821609     0.895723  Biso 1.000000     H
    H   1.0     0.070645     0.881165     0.090860  Biso 1.000000     H
    H   1.0     0.659197     0.916435     0.301310  Biso 1.000000     H
    H   1.0     0.983946     0.955640     0.888224  Biso 1.000000     H
    H   1.0     0.042766     0.852682     0.894395  Biso 1.000000     H
    H   1.0     0.875401     0.946618     0.765700  Biso 1.000000     H
    H   1.0     0.116651     0.948381     0.981317  Biso 1.000000     H
    H   1.0     0.669028     0.943264     0.175324  Biso 1.000000     H
    H   1.0     0.932491     0.480134     0.774590  Biso 1.000000     H
    H   1.0     0.802904     0.535465     0.112782  Biso 1.000000     H
    H   1.0     0.756109     0.682906     0.073683  Biso 1.000000     H
    H   1.0     0.906652     0.863243     0.109630  Biso 1.000000     H
    H   1.0     0.912928     0.767806     0.057280  Biso 1.000000     H
    H   1.0     0.821854     0.685100     0.903557  Biso 1.000000     H
    H   1.0     0.006710     0.026334     0.067191  Biso 1.000000     H
    H   1.0     0.991740     0.065006     0.982113  Biso 1.000000     H
    H   1.0     0.975103     0.590555     0.684771  Biso 1.000000     H
    H   1.0     0.751744     0.608983     0.321720  Biso 1.000000     H
    H   1.0     0.686519     0.695003     0.381470  Biso 1.000000     H
    H   1.0     0.837638     0.010911     0.973267  Biso 1.000000     H
    H   1.0     0.839491     0.998877     0.063446  Biso 1.000000     H
    H   1.0     0.953800     0.887602     0.660529  Biso 1.000000     H
    H   1.0     0.831318     0.475695     0.988652  Biso 1.000000     H
    H   1.0     0.894376     0.578517     0.981935  Biso 1.000000     H
    H   1.0     0.768730     0.572911     0.961144  Biso 1.000000     H
    H   1.0     0.755650     0.883315     0.396725  Biso 1.000000     H
    H   1.0     0.698472     0.861709     0.508186  Biso 1.000000     H
    H   1.0     0.704068     0.746550     0.502749  Biso 1.000000     H
    H   1.0     0.834769     0.815621     0.580884  Biso 1.000000     H
    H   1.0     0.976123     0.876318     0.523828  Biso 1.000000     H
    H   1.0     0.850015     0.664468     0.536351  Biso 1.000000     H
    H   1.0     0.963308     0.716077     0.528062  Biso 1.000000     H
    H   1.0     0.999079     0.831718     0.410925  Biso 1.000000     H
    H   1.0     0.914947     0.914137     0.386606  Biso 1.000000     H
    H   1.0     0.830870     0.653578     0.416917  Biso 1.000000     H
    H   1.0     0.953529     0.680739     0.410300  Biso 1.000000     H
    H   1.0     0.836481     0.356263     0.232438  Biso 1.000000     H
    H   1.0     0.759743     0.402509     0.168497  Biso 1.000000     H
    H   1.0     0.886912     0.426048     0.167877  Biso 1.000000     H
    C   1.0     0.399337     0.647022     0.061862  Biso 1.000000     C
    C   1.0     0.323828     0.639241     0.119734  Biso 1.000000     C
    C   1.0     0.198302     0.719307     0.706254  Biso 1.000000     C
    C   1.0     0.535065     0.643540     0.955620  Biso 1.000000     C
    C   1.0     0.230577     0.765918     0.824747  Biso 1.000000     C
    C   1.0     0.365269     0.678389     0.184991  Biso 1.000000     C
    C   1.0     0.179734     0.636919     0.732796  Biso 1.000000     C
    C   1.0     0.495622     0.601469     0.078150  Biso 1.000000     C
    C   1.0     0.382600     0.770469     0.193030  Biso 1.000000     C
    C   1.0     0.227512     0.786755     0.752819  Biso 1.000000     C
    C   1.0     0.389883     0.623228     0.238500  Biso 1.000000     C
    C   1.0     0.426440     0.798561     0.255925  Biso 1.000000     C
    C   1.0     0.541120     0.570148     0.010744  Biso 1.000000     C
    C   1.0     0.592274     0.723252     0.979479  Biso 1.000000     C
    C   1.0     0.185478     0.621232     0.803446  Biso 1.000000     C
    C   1.0     0.420245     0.950061     0.217441  Biso 1.000000     C
    C   1.0     0.282078     0.915252     0.849814  Biso 1.000000     C
    C   1.0     0.256959     0.832210     0.871756  Biso 1.000000     C
    C   1.0     0.427234     0.661455     0.941077  Biso 1.000000     C
    C   1.0     0.358736     0.834654     0.142982  Biso 1.000000     C
    C   1.0     0.482219     0.492296     0.984370  Biso 1.000000     C
    C   1.0     0.443026     0.889504     0.266801  Biso 1.000000     C
    C   1.0     0.253336     0.872347     0.731947  Biso 1.000000     C
    C   1.0     0.183669     0.734012     0.629944  Biso 1.000000     C
    C   1.0     0.281556     0.935421     0.779022  Biso 1.000000     C
    C   1.0     0.375674     0.519922     0.984236  Biso 1.000000     C
    C   1.0     0.433865     0.656662     0.297751  Biso 1.000000     C
    C   1.0     0.379325     0.922419     0.154512  Biso 1.000000     C
    C   1.0     0.337377     0.962858     0.040240  Biso 1.000000     C
    C   1.0     0.260729     0.686064     0.587908  Biso 1.000000     C
    C   1.0     0.243374     0.692625     0.509793  Biso 1.000000     C
    C   1.0     0.342020     0.693967     0.474505  Biso 1.000000     C
    C   1.0     0.408033     0.621344     0.504860  Biso 1.000000     C
    C   1.0     0.388916     0.782913     0.490604  Biso 1.000000     C
    C   1.0     0.368430     0.529044     0.492143  Biso 1.000000     C
    C   1.0     0.425233     0.644658     0.581553  Biso 1.000000     C
    C   1.0     0.384331     0.796404     0.569389  Biso 1.000000     C
    C   1.0     0.323678     0.085954     0.799557  Biso 1.000000     C
    C   1.0     0.100665     0.353011     0.561846  Biso 1.000000     C
    C   1.0     0.176175     0.360785     0.619720  Biso 1.000000     C
    C   1.0     0.301732     0.280739     0.206261  Biso 1.000000     C
    C   1.0     0.964921     0.356511     0.455608  Biso 1.000000     C
    C   1.0     0.269412     0.234102     0.324758  Biso 1.000000     C
    C   1.0     0.134738     0.321619     0.684984  Biso 1.000000     C
    C   1.0     0.320288     0.363122     0.232789  Biso 1.000000     C
    C   1.0     0.000000     0.398556     0.578122  Biso 1.000000     C
    C   1.0     0.117408     0.229536     0.693037  Biso 1.000000     C
    C   1.0     0.272503     0.213282     0.252834  Biso 1.000000     C
    C   1.0     0.110121     0.376763     0.738482  Biso 1.000000     C
    C   1.0     0.073570     0.201423     0.755934  Biso 1.000000     C
    C   1.0     0.958875     0.429889     0.510707  Biso 1.000000     C
    C   1.0     0.907718     0.276790     0.479482  Biso 1.000000     C
    C   1.0     0.314519     0.378793     0.303434  Biso 1.000000     C
    C   1.0     0.079752     0.049937     0.717469  Biso 1.000000     C
    C   1.0     0.217892     0.084762     0.349839  Biso 1.000000     C
    C   1.0     0.243009     0.167798     0.371772  Biso 1.000000     C
    C   1.0     0.072750     0.338601     0.441070  Biso 1.000000     C
    C   1.0     0.141270     0.165369     0.642999  Biso 1.000000     C
    C   1.0     0.017766     0.507750     0.484321  Biso 1.000000     C
    C   1.0     0.056978     0.110477     0.766820  Biso 1.000000     C
    C   1.0     0.246683     0.127697     0.231971  Biso 1.000000     C
    C   1.0     0.316368     0.266062     0.129954  Biso 1.000000     C
    C   1.0     0.218439     0.064611     0.279050  Biso 1.000000     C
    C   1.0     0.124313     0.480128     0.484195  Biso 1.000000     C
    C   1.0     0.066143     0.343308     0.797737  Biso 1.000000     C
    C   1.0     0.120672     0.077601     0.654538  Biso 1.000000     C
    C   1.0     0.162606     0.037209     0.540270  Biso 1.000000     C
    C   1.0     0.239261     0.313965     0.087909  Biso 1.000000     C
    C   1.0     0.256601     0.307419     0.009796  Biso 1.000000     C
    C   1.0     0.157938     0.306074     0.974512  Biso 1.000000     C
    C   1.0     0.091939     0.378675     0.004877  Biso 1.000000     C
    C   1.0     0.111061     0.217117     0.990627  Biso 1.000000     C
    C   1.0     0.131563     0.470974     0.992150  Biso 1.000000     C
    C   1.0     0.074746     0.355311     0.081569  Biso 1.000000     C
    C   1.0     0.115706     0.203585     0.069418  Biso 1.000000     C
    C   1.0     0.176309     0.914073     0.299603  Biso 1.000000     C
    C   1.0     0.600622     0.147003     0.438121  Biso 1.000000     C
    C   1.0     0.676119     0.139232     0.380239  Biso 1.000000     C
    C   1.0     0.801740     0.219292     0.793733  Biso 1.000000     C
    C   1.0     0.464865     0.143498     0.544358  Biso 1.000000     C
    C   1.0     0.769409     0.265912     0.675237  Biso 1.000000     C
    C   1.0     0.634701     0.178421     0.314982  Biso 1.000000     C
    C   1.0     0.820286     0.136916     0.767208  Biso 1.000000     C
    C   1.0     0.504310     0.101456     0.421844  Biso 1.000000     C
    C   1.0     0.617392     0.270499     0.306941  Biso 1.000000     C
    C   1.0     0.772500     0.286732     0.747161  Biso 1.000000     C
    C   1.0     0.610087     0.123283     0.261471  Biso 1.000000     C
    C   1.0     0.573555     0.298609     0.244046  Biso 1.000000     C
    C   1.0     0.458784     0.070124     0.489256  Biso 1.000000     C
    C   1.0     0.407708     0.223217     0.520489  Biso 1.000000     C
    C   1.0     0.814506     0.121240     0.696563  Biso 1.000000     C
    C   1.0     0.579744     0.450086     0.282539  Biso 1.000000     C
    C   1.0     0.717901     0.415229     0.650154  Biso 1.000000     C
    C   1.0     0.743018     0.332207     0.628222  Biso 1.000000     C
    C   1.0     0.572703     0.161423     0.558895  Biso 1.000000     C
    C   1.0     0.641265     0.334663     0.356989  Biso 1.000000     C
    C   1.0     0.517624     0.992296     0.515655  Biso 1.000000     C
    C   1.0     0.556972     0.389550     0.233174  Biso 1.000000     C
    C   1.0     0.746676     0.372303     0.768023  Biso 1.000000     C
    C   1.0     0.816393     0.233987     0.870038  Biso 1.000000     C
    C   1.0     0.718437     0.435378     0.720944  Biso 1.000000     C
    C   1.0     0.624189     0.019898     0.515784  Biso 1.000000     C
    C   1.0     0.566116     0.156734     0.202218  Biso 1.000000     C
    C   1.0     0.620669     0.422424     0.345465  Biso 1.000000     C
    C   1.0     0.662612     0.462808     0.459741  Biso 1.000000     C
    C   1.0     0.739296     0.186063     0.912095  Biso 1.000000     C
    C   1.0     0.756664     0.192643     0.990207  Biso 1.000000     C
    C   1.0     0.658028     0.193951     0.025502  Biso 1.000000     C
    C   1.0     0.592060     0.121262     0.995159  Biso 1.000000     C
    C   1.0     0.611112     0.282861     0.009369  Biso 1.000000     C
    C   1.0     0.631885     0.029064     0.007931  Biso 1.000000     C
    C   1.0     0.574811     0.144598     0.918470  Biso 1.000000     C
    C   1.0     0.615732     0.296369     0.930577  Biso 1.000000     C
    C   1.0     0.676317     0.585918     0.700385  Biso 1.000000     C
    C   1.0     0.899382     0.853020     0.938104  Biso 1.000000     C
    C   1.0     0.823882     0.860795     0.880217  Biso 1.000000     C
    C   1.0     0.698295     0.780721     0.293737  Biso 1.000000     C
    C   1.0     0.035141     0.856504     0.044354  Biso 1.000000     C
    C   1.0     0.730591     0.734130     0.175248  Biso 1.000000     C
    C   1.0     0.865310     0.821626     0.814973  Biso 1.000000     C
    C   1.0     0.679728     0.863101     0.267194  Biso 1.000000     C
    C   1.0    -0.004312     0.898581     0.921822  Biso 1.000000     C
    C   1.0     0.882621     0.729551     0.806949  Biso 1.000000     C
    C   1.0     0.727516     0.713289     0.247175  Biso 1.000000     C
    C   1.0     0.889925     0.876780     0.761453  Biso 1.000000     C
    C   1.0     0.926462     0.701460     0.744062  Biso 1.000000     C
    C   1.0     0.041212     0.929896     0.989231  Biso 1.000000     C
    C   1.0     0.092298     0.776797     0.020494  Biso 1.000000     C
    C   1.0     0.685489     0.878795     0.196546  Biso 1.000000     C
    C   1.0     0.920257     0.549970     0.782575  Biso 1.000000     C
    C   1.0     0.782085     0.584821     0.150183  Biso 1.000000     C
    C   1.0     0.756969     0.667851     0.128241  Biso 1.000000     C
    C   1.0     0.927305     0.838574     0.058892  Biso 1.000000     C
    C   1.0     0.858738     0.665370     0.857004  Biso 1.000000     C
    C   1.0     0.982380     0.007714     0.015617  Biso 1.000000     C
    C   1.0     0.943045     0.610523     0.733206  Biso 1.000000     C
    C   1.0     0.753341     0.627710     0.268049  Biso 1.000000     C
    C   1.0     0.683644     0.766001     0.370043  Biso 1.000000     C
    C   1.0     0.781564     0.564650     0.220976  Biso 1.000000     C
    C   1.0     0.875816     0.980111     0.015745  Biso 1.000000     C
    C   1.0     0.933901     0.843348     0.702210  Biso 1.000000     C
    C   1.0     0.879329     0.577612     0.845494  Biso 1.000000     C
    C   1.0     0.837362     0.537183     0.959768  Biso 1.000000     C
    C   1.0     0.760703     0.813969     0.412093  Biso 1.000000     C
    C   1.0     0.743328     0.807378     0.490206  Biso 1.000000     C
    C   1.0     0.841963     0.806071     0.525510  Biso 1.000000     C
    C   1.0     0.907931     0.878779     0.495181  Biso 1.000000     C
    C   1.0     0.888892     0.717170     0.509399  Biso 1.000000     C
    C   1.0     0.868137     0.970979     0.507935  Biso 1.000000     C
    C   1.0     0.925185     0.855491     0.418492  Biso 1.000000     C
    C   1.0     0.884314     0.703699     0.430612  Biso 1.000000     C
    C   1.0     0.823673     0.414115     0.200435  Biso 1.000000     C
    N   1.0     0.363979     0.617276     0.992581  Biso 1.000000     N
    N   1.0     0.208715     0.683262     0.848749  Biso 1.000000     N
    N   1.0     0.452928     0.741424     0.306566  Biso 1.000000     N
    N   1.0     0.359434     0.714143     0.605542  Biso 1.000000     N
    N   1.0     0.136009     0.382772     0.492563  Biso 1.000000     N
    N   1.0     0.291266     0.316753     0.348747  Biso 1.000000     N
    N   1.0     0.047083     0.258543     0.806566  Biso 1.000000     N
    N   1.0     0.140577     0.285838     0.105566  Biso 1.000000     N
    N   1.0     0.635942     0.117253     0.507411  Biso 1.000000     N
    N   1.0     0.791255     0.183270     0.651250  Biso 1.000000     N
    N   1.0     0.547065     0.241494     0.193401  Biso 1.000000     N
    N   1.0     0.640603     0.214119     0.894440  Biso 1.000000     N
    N   1.0     0.864073     0.882756     0.007391  Biso 1.000000     N
    N   1.0     0.708736     0.816776     0.151247  Biso 1.000000     N
    N   1.0     0.952961     0.758593     0.693412  Biso 1.000000     N
    N   1.0     0.859417     0.785961     0.394473  Biso 1.000000     N
    O   1.0     0.295730     0.550838     0.132963  Biso 1.000000     O
    O   1.0     0.683982     0.718791     0.974745  Biso 1.000000     O
    O   1.0     0.093940     0.698890     0.607609  Biso 1.000000     O
    O   1.0     0.549622     0.788825     0.005844  Biso 1.000000     O
    O   1.0     0.362405     0.988606     0.108727  Biso 1.000000     O
    O   1.0     0.308006     0.014969     0.752749  Biso 1.000000     O
    O   1.0     0.357927     0.504020     0.430391  Biso 1.000000     O
    O   1.0     0.348366     0.478367     0.542592  Biso 1.000000     O
    O   1.0     0.204268     0.449189     0.632928  Biso 1.000000     O
    O   1.0     0.816008     0.281247     0.474750  Biso 1.000000     O
    O   1.0     0.406063     0.301260     0.107611  Biso 1.000000     O
    O   1.0     0.950381     0.211212     0.505860  Biso 1.000000     O
    O   1.0     0.137583     0.011434     0.608759  Biso 1.000000     O
    O   1.0     0.191991     0.985072     0.252783  Biso 1.000000     O
    O   1.0     0.142040     0.496027     0.930395  Biso 1.000000     O
    O   1.0     0.151689     0.521611     0.042600  Biso 1.000000     O
    O   1.0     0.704143     0.050849     0.366978  Biso 1.000000     O
    O   1.0     0.315996     0.218779     0.525248  Biso 1.000000     O
    O   1.0     0.906083     0.198820     0.892381  Biso 1.000000     O
    O   1.0     0.450410     0.288769     0.494077  Biso 1.000000     O
    O   1.0     0.637583     0.488589     0.391255  Biso 1.000000     O
    O   1.0     0.691993     0.514929     0.747208  Biso 1.000000     O
    O   1.0     0.641972     0.003941     0.069691  Biso 1.000000     O
    O   1.0     0.652597     0.978592     0.957521  Biso 1.000000     O
    O   1.0     0.795856     0.949180     0.866938  Biso 1.000000     O
    O   1.0     0.184009     0.781237     0.025252  Biso 1.000000     O
    O   1.0     0.593931     0.801103     0.392378  Biso 1.000000     O
    O   1.0     0.049589     0.711248     0.994096  Biso 1.000000     O
    O   1.0     0.862402     0.511429     0.891289  Biso 1.000000     O
    O   1.0     0.808005     0.485088     0.247246  Biso 1.000000     O
    O   1.0     0.858005     0.996072     0.569692  Biso 1.000000     O
    O   1.0     0.847492     0.021493     0.457523  Biso 1.000000     O
   Cd   1.0     0.196911     0.641271     0.964589  Biso 1.000000    Cd
   Cd   1.0     0.303075     0.358761     0.464577  Biso 1.000000    Cd
   Cd   1.0     0.802962     0.141286     0.535429  Biso 1.000000    Cd
   Cd   1.0     0.697044     0.858737     0.035413  Biso 1.000000    Cd
