#======================================================================

# CRYSTAL DATA

#----------------------------------------------------------------------

data_VESTA_phase_1


_pd_phase_name                         MOF
_cell_length_a                         13.58500
_cell_length_b                         14.44700
_cell_length_c                         14.45100
_cell_angle_alpha                      69.28600
_cell_angle_beta                       71.79600
_cell_angle_gamma                      108.20600
_symmetry_space_group_name_H-M         "P 1"
_symmetry_Int_Tables_number            1

loop_
_symmetry_equiv_pos_as_xyz
   "x, y, z"

loop_
   _atom_site_label
   _atom_site_occupancy
   _atom_site_fract_x
   _atom_site_fract_y
   _atom_site_fract_z
   _atom_site_adp_type
   _atom_site_B_iso_or_equiv
   _atom_site_type_symbol
    H   1.0     0.317310     0.838549     0.394417  Biso 1.000000     H
    H   1.0     0.237224     0.893931     0.346946  Biso 1.000000     H
    H   1.0     0.304070     0.085750     0.456576  Biso 1.000000     H
    H   1.0     0.100597     0.802358     0.759350  Biso 1.000000     H
    H   1.0     0.038021     0.872875     0.703069  Biso 1.000000     H
    H   1.0     0.469479     0.020728     0.256862  Biso 1.000000     H
    H   1.0     0.366307     0.072401     0.282733  Biso 1.000000     H
    H   1.0     0.384618     0.100762     0.580320  Biso 1.000000     H
    H   1.0     0.353328     0.956687     0.629607  Biso 1.000000     H
    H   1.0     0.502979     0.126346     0.360450  Biso 1.000000     H
    H   1.0     0.456922     0.980525     0.445288  Biso 1.000000     H
    H   1.0     0.192923     0.963409     0.762288  Biso 1.000000     H
    H   1.0     0.171949     0.042377     0.649883  Biso 1.000000     H
    H   1.0     0.712985     0.394149     0.767142  Biso 1.000000     H
    H   1.0     0.585302     0.346914     0.759554  Biso 1.000000     H
    H   1.0     0.760375     0.456453     0.458102  Biso 1.000000     H
    H   1.0     0.859906     0.759477     0.438368  Biso 1.000000     H
    H   1.0     0.740851     0.703301     0.424669  Biso 1.000000     H
    H   1.0     0.727302     0.256508     0.722368  Biso 1.000000     H
    H   1.0     0.649569     0.282592     0.645267  Biso 1.000000     H
    H   1.0     0.964259     0.580049     0.318865  Biso 1.000000     H
    H   1.0     0.982649     0.629341     0.413503  Biso 1.000000     H
    H   1.0     0.863557     0.360068     0.513095  Biso 1.000000     H
    H   1.0     0.902645     0.444881     0.573910  Biso 1.000000     H
    H   1.0     0.954372     0.762184     0.274388  Biso 1.000000     H
    H   1.0     0.820966     0.649906     0.308216  Biso 1.000000     H
    H   1.0     0.478900     0.767132     0.838860  Biso 1.000000     H
    H   1.0     0.343492     0.759139     0.893845  Biso 1.000000     H
    H   1.0     0.218552     0.457781     0.085652  Biso 1.000000     H
    H   1.0     0.299348     0.438269     0.802312  Biso 1.000000     H
    H   1.0     0.166530     0.424546     0.871676  Biso 1.000000     H
    H   1.0     0.448802     0.722278     0.021189  Biso 1.000000     H
    H   1.0     0.294180     0.644971     0.072381  Biso 1.000000     H
    H   1.0     0.283664     0.318596     0.101464  Biso 1.000000     H
    H   1.0     0.396542     0.413234     0.957607  Biso 1.000000     H
    H   1.0     0.376578     0.512973     0.126990  Biso 1.000000     H
    H   1.0     0.476294     0.573852     0.981356  Biso 1.000000     H
    H   1.0     0.229439     0.273986     0.963951  Biso 1.000000     H
    H   1.0     0.129938     0.308235     0.041970  Biso 1.000000     H
    H   1.0     0.682684     0.161483     0.605596  Biso 1.000000     H
    H   1.0     0.762770     0.106101     0.653067  Biso 1.000000     H
    H   1.0     0.695924     0.914282     0.543437  Biso 1.000000     H
    H   1.0     0.899397     0.197674     0.240663  Biso 1.000000     H
    H   1.0     0.961973     0.127157     0.296944  Biso 1.000000     H
    H   1.0     0.530516     0.979304     0.743152  Biso 1.000000     H
    H   1.0     0.633687     0.927631     0.717280  Biso 1.000000     H
    H   1.0     0.615376     0.899270     0.419693  Biso 1.000000     H
    H   1.0     0.646667     0.043345     0.370406  Biso 1.000000     H
    H   1.0     0.497015     0.873686     0.639564  Biso 1.000000     H
    H   1.0     0.543073     0.019507     0.554725  Biso 1.000000     H
    H   1.0     0.807070     0.036623     0.237725  Biso 1.000000     H
    H   1.0     0.828045     0.957655     0.350131  Biso 1.000000     H
    H   1.0     0.287010     0.605883     0.232871  Biso 1.000000     H
    H   1.0     0.414692     0.653118     0.240459  Biso 1.000000     H
    H   1.0     0.239619     0.543579     0.541911  Biso 1.000000     H
    H   1.0     0.140088     0.240555     0.561645  Biso 1.000000     H
    H   1.0     0.259144     0.296731     0.575344  Biso 1.000000     H
    H   1.0     0.272692     0.743525     0.277645  Biso 1.000000     H
    H   1.0     0.350426     0.717440     0.354746  Biso 1.000000     H
    H   1.0     0.035735     0.419983     0.681148  Biso 1.000000     H
    H   1.0     0.017345     0.370691     0.586510  Biso 1.000000     H
    H   1.0     0.136437     0.639964     0.486918  Biso 1.000000     H
    H   1.0     0.097349     0.555151     0.426104  Biso 1.000000     H
    H   1.0     0.045623     0.237848     0.725625  Biso 1.000000     H
    H   1.0     0.179028     0.350127     0.691797  Biso 1.000000     H
    H   1.0     0.521094     0.232900     0.161153  Biso 1.000000     H
    H   1.0     0.656502     0.240893     0.106168  Biso 1.000000     H
    H   1.0     0.781442     0.542251     0.914361  Biso 1.000000     H
    H   1.0     0.700646     0.561764     0.197701  Biso 1.000000     H
    H   1.0     0.833464     0.575486     0.128337  Biso 1.000000     H
    H   1.0     0.551192     0.277754     0.978824  Biso 1.000000     H
    H   1.0     0.705814     0.355061     0.927632  Biso 1.000000     H
    H   1.0     0.716330     0.681436     0.898549  Biso 1.000000     H
    H   1.0     0.603453     0.586798     0.042406  Biso 1.000000     H
    H   1.0     0.623416     0.487060     0.873023  Biso 1.000000     H
    H   1.0     0.523700     0.426180     0.018657  Biso 1.000000     H
    H   1.0     0.770555     0.726046     0.036062  Biso 1.000000     H
    H   1.0     0.870056     0.691797     0.958043  Biso 1.000000     H
    C   1.0     0.394293     0.012879     0.322888  Biso 1.000000     C
    C   1.0     0.429999     0.040271     0.404430  Biso 1.000000     C
    C   1.0     0.325126     0.018506     0.596288  Biso 1.000000     C
    C   1.0     0.198754     0.978335     0.680364  Biso 1.000000     C
    C   1.0     0.717894     0.322649     0.664357  Biso 1.000000     C
    C   1.0     0.834716     0.404113     0.555234  Biso 1.000000     C
    C   1.0     0.920985     0.596074     0.385192  Biso 1.000000     C
    C   1.0     0.878491     0.680313     0.341544  Biso 1.000000     C
    C   1.0     0.381551     0.664171     0.013164  Biso 1.000000     C
    C   1.0     0.389728     0.555095     0.040816  Biso 1.000000     C
    C   1.0     0.306606     0.384944     0.019059  Biso 1.000000     C
    C   1.0     0.220697     0.341314     0.978424  Biso 1.000000     C
    C   1.0     0.605701     0.987153     0.677126  Biso 1.000000     C
    C   1.0     0.569995     0.959761     0.595583  Biso 1.000000     C
    C   1.0     0.674868     0.981526     0.403725  Biso 1.000000     C
    C   1.0     0.801240     0.021697     0.319649  Biso 1.000000     C
    C   1.0     0.282100     0.677383     0.335656  Biso 1.000000     C
    C   1.0     0.165278     0.595919     0.444779  Biso 1.000000     C
    C   1.0     0.079009     0.403958     0.614821  Biso 1.000000     C
    C   1.0     0.121503     0.319719     0.658470  Biso 1.000000     C
    C   1.0     0.618443     0.335861     0.986850  Biso 1.000000     C
    C   1.0     0.610266     0.444937     0.959197  Biso 1.000000     C
    C   1.0     0.693388     0.615088     0.980954  Biso 1.000000     C
    C   1.0     0.779297     0.658718     0.021589  Biso 1.000000     C
    N   1.0     0.291483     0.899175     0.384804  Biso 1.000000     N
    N   1.0     0.324338     0.023615     0.492766  Biso 1.000000     N
    N   1.0     0.117107     0.873465     0.691297  Biso 1.000000     N
    N   1.0     0.677287     0.384676     0.716299  Biso 1.000000     N
    N   1.0     0.817068     0.492583     0.483765  Biso 1.000000     N
    N   1.0     0.808252     0.691406     0.435555  Biso 1.000000     N
    N   1.0     0.392572     0.716067     0.899276  Biso 1.000000     N
    N   1.0     0.300865     0.483530     0.023879  Biso 1.000000     N
    N   1.0     0.244592     0.435386     0.873095  Biso 1.000000     N
    N   1.0     0.708511     0.100858     0.615209  Biso 1.000000     N
    N   1.0     0.675656     0.976417     0.507247  Biso 1.000000     N
    N   1.0     0.882887     0.126567     0.308716  Biso 1.000000     N
    N   1.0     0.322708     0.615356     0.283714  Biso 1.000000     N
    N   1.0     0.182926     0.507449     0.516249  Biso 1.000000     N
    N   1.0     0.191742     0.308626     0.564458  Biso 1.000000     N
    N   1.0     0.607422     0.283965     0.100737  Biso 1.000000     N
    N   1.0     0.699129     0.516502     0.976134  Biso 1.000000     N
    N   1.0     0.755403     0.564646     0.126918  Biso 1.000000     N
    O   1.0     0.111580     0.951329     0.480891  Biso 1.000000     O
    O   1.0     0.090709     0.072541     0.325337  Biso 1.000000     O
    O   1.0     0.924186     0.870996     0.470387  Biso 1.000000     O
    O   1.0     0.113913     0.902824     0.322964  Biso 1.000000     O
    O   1.0     0.121741     0.286724     0.293177  Biso 1.000000     O
    O   1.0     0.087411     0.451669     0.220571  Biso 1.000000     O
    O   1.0     0.121281     0.405908     0.390829  Biso 1.000000     O
    O   1.0     0.931010     0.280177     0.410849  Biso 1.000000     O
    O   1.0     0.593153     0.481321     0.567908  Biso 1.000000     O
    O   1.0     0.417207     0.325542     0.602141  Biso 1.000000     O
    O   1.0     0.395132     0.470382     0.658795  Biso 1.000000     O
    O   1.0     0.438207     0.323024     0.774182  Biso 1.000000     O
    O   1.0     0.414850     0.293169     0.420263  Biso 1.000000     O
    O   1.0     0.307821     0.220162     0.328365  Biso 1.000000     O
    O   1.0     0.511711     0.390248     0.203440  Biso 1.000000     O
    O   1.0     0.341584     0.410802     0.308773  Biso 1.000000     O
    O   1.0     0.160830     0.567809     0.950628  Biso 1.000000     O
    O   1.0     0.019092     0.602326     0.071997  Biso 1.000000     O
    O   1.0     0.053473     0.658744     0.870613  Biso 1.000000     O
    O   1.0     0.211636     0.774191     0.902464  Biso 1.000000     O
    O   1.0     0.834947     0.420624     0.286337  Biso 1.000000     O
    O   1.0     0.636384     0.328389     0.451425  Biso 1.000000     O
    O   1.0     0.715958     0.203735     0.405932  Biso 1.000000     O
    O   1.0     0.650436     0.308941     0.280452  Biso 1.000000     O
    O   1.0     0.888414     0.048703     0.519122  Biso 1.000000     O
    O   1.0     0.909285     0.927491     0.674676  Biso 1.000000     O
    O   1.0     0.075808     0.129036     0.529626  Biso 1.000000     O
    O   1.0     0.886081     0.097208     0.677049  Biso 1.000000     O
    O   1.0     0.878253     0.713308     0.706836  Biso 1.000000     O
    O   1.0     0.912583     0.548363     0.779442  Biso 1.000000     O
    O   1.0     0.878713     0.594124     0.609184  Biso 1.000000     O
    O   1.0     0.068984     0.719855     0.589164  Biso 1.000000     O
    O   1.0     0.406841     0.518711     0.432105  Biso 1.000000     O
    O   1.0     0.582787     0.674490     0.397872  Biso 1.000000     O
    O   1.0     0.604862     0.529650     0.341218  Biso 1.000000     O
    O   1.0     0.561787     0.677008     0.225831  Biso 1.000000     O
    O   1.0     0.585144     0.706863     0.579750  Biso 1.000000     O
    O   1.0     0.692173     0.779870     0.671648  Biso 1.000000     O
    O   1.0     0.488283     0.609784     0.796573  Biso 1.000000     O
    O   1.0     0.658410     0.589230     0.691240  Biso 1.000000     O
    O   1.0     0.839164     0.432223     0.049386  Biso 1.000000     O
    O   1.0     0.980902     0.397706     0.928016  Biso 1.000000     O
    O   1.0     0.946521     0.341288     0.129401  Biso 1.000000     O
    O   1.0     0.788358     0.225841     0.097549  Biso 1.000000     O
    O   1.0     0.165047     0.579408     0.713676  Biso 1.000000     O
    O   1.0     0.363611     0.671643     0.548588  Biso 1.000000     O
    O   1.0     0.284036     0.796297     0.594081  Biso 1.000000     O
    O   1.0     0.349558     0.691091     0.719561  Biso 1.000000     O
    P   1.0     0.064698     0.946390     0.395894  Biso 1.000000     P
    P   1.0     0.065066     0.354099     0.332963  Biso 1.000000     P
    P   1.0     0.461615     0.396045     0.657727  Biso 1.000000     P
    P   1.0     0.397856     0.332757     0.313041  Biso 1.000000     P
    P   1.0     0.118874     0.657705     0.946004  Biso 1.000000     P
    P   1.0     0.711145     0.313268     0.354058  Biso 1.000000     P
    P   1.0     0.935296     0.053642     0.604119  Biso 1.000000     P
    P   1.0     0.934928     0.645933     0.667050  Biso 1.000000     P
    P   1.0     0.538379     0.603987     0.342286  Biso 1.000000     P
    P   1.0     0.602138     0.667275     0.686972  Biso 1.000000     P
    P   1.0     0.881120     0.342327     0.054009  Biso 1.000000     P
    P   1.0     0.288849     0.686764     0.645955  Biso 1.000000     P
   Ga   1.0     0.144754     0.169240     0.377183  Biso 1.000000    Ga
   Ga   1.0     0.186658     0.867102     0.545228  Biso 1.000000    Ga
   Ga   1.0     0.521951     0.377179     0.453415  Biso 1.000000    Ga
   Ga   1.0     0.732317     0.545188     0.588039  Biso 1.000000    Ga
   Ga   1.0     0.975203     0.453597     0.169504  Biso 1.000000    Ga
   Ga   1.0     0.320097     0.587840     0.866947  Biso 1.000000    Ga
   Ga   1.0     0.855240     0.830792     0.622830  Biso 1.000000    Ga
   Ga   1.0     0.813336     0.132930     0.454785  Biso 1.000000    Ga
   Ga   1.0     0.478043     0.622853     0.546598  Biso 1.000000    Ga
   Ga   1.0     0.267677     0.454844     0.411974  Biso 1.000000    Ga
   Ga   1.0     0.024791     0.546435     0.830509  Biso 1.000000    Ga
   Ga   1.0     0.679897     0.412192     0.133066  Biso 1.000000    Ga
