#======================================================================

# CRYSTAL DATA

#----------------------------------------------------------------------

data_VESTA_phase_1


_pd_phase_name                         MOF
_cell_length_a                         12.43800
_cell_length_b                         20.18800
_cell_length_c                         20.19300
_cell_angle_alpha                      101.87300
_cell_angle_beta                       95.38800
_cell_angle_gamma                      95.26800
_symmetry_space_group_name_H-M         "P 1"
_symmetry_Int_Tables_number            1

loop_
_symmetry_equiv_pos_as_xyz
   "x, y, z"

loop_
   _atom_site_label
   _atom_site_occupancy
   _atom_site_fract_x
   _atom_site_fract_y
   _atom_site_fract_z
   _atom_site_adp_type
   _atom_site_B_iso_or_equiv
   _atom_site_type_symbol
    H   1.0     0.223395     0.863784     0.609780  Biso 1.000000     H
    H   1.0     0.180211     0.549922     0.944928  Biso 1.000000     H
    H   1.0     0.981750     0.325987     0.965440  Biso 1.000000     H
    H   1.0     0.856280     0.078324     0.673030  Biso 1.000000     H
    H   1.0     0.399741     0.848153     0.302307  Biso 1.000000     H
    H   1.0     0.414564     0.817915     0.904008  Biso 1.000000     H
    H   1.0     0.979164     0.858871     0.918699  Biso 1.000000     H
    H   1.0     0.555270     0.778217     0.305160  Biso 1.000000     H
    H   1.0     0.294963     0.656547     0.992288  Biso 1.000000     H
    H   1.0     0.643958     0.326990     0.921568  Biso 1.000000     H
    H   1.0     0.319569     0.054994     0.450216  Biso 1.000000     H
    H   1.0     0.256793     0.829210     0.303175  Biso 1.000000     H
    H   1.0     0.022255     0.040987     0.748326  Biso 1.000000     H
    H   1.0     0.795316     0.992231     0.656456  Biso 1.000000     H
    H   1.0     0.544258     0.087333     0.513841  Biso 1.000000     H
    H   1.0     0.243221     0.696763     0.170837  Biso 1.000000     H
    H   1.0     0.281112     0.258726     0.963064  Biso 1.000000     H
    H   1.0     0.762757     0.486698     0.886139  Biso 1.000000     H
    H   1.0     0.718933     0.741300     0.036904  Biso 1.000000     H
    H   1.0     0.237262     0.513298     0.113831  Biso 1.000000     H
    H   1.0     0.540550     0.681696     0.203968  Biso 1.000000     H
    H   1.0     0.143761     0.921661     0.326958  Biso 1.000000     H
    H   1.0     0.944858     0.694717     0.221866  Biso 1.000000     H
    H   1.0     0.250219     0.785973     0.819978  Biso 1.000000     H
    H   1.0     0.588862     0.915253     0.215713  Biso 1.000000     H
    H   1.0     0.100229     0.697712     0.151860  Biso 1.000000     H
    H   1.0     0.513664     0.895692     0.407345  Biso 1.000000     H
    H   1.0     0.018291     0.674023     0.034538  Biso 1.000000     H
    H   1.0     0.411177     0.084711     0.784311  Biso 1.000000     H
    H   1.0     0.481453     0.965483     0.326126  Biso 1.000000     H
    H   1.0     0.477963     0.251889     0.958598  Biso 1.000000     H
    H   1.0     0.518587     0.034516     0.673874  Biso 1.000000     H
    H   1.0     0.085534     0.096072     0.182532  Biso 1.000000     H
    H   1.0     0.654728    -0.002763     0.489792  Biso 1.000000     H
    H   1.0     0.678019     0.408905     0.851269  Biso 1.000000     H
    H   1.0     0.743257     0.170781     0.696809  Biso 1.000000     H
    H   1.0     0.723129     0.609632     0.864037  Biso 1.000000     H
    H   1.0     0.013591     0.407288     0.895760  Biso 1.000000     H
    H   1.0     0.276885     0.390358     0.135930  Biso 1.000000     H
    H   1.0     0.262983     0.886042     0.486635  Biso 1.000000     H
    H   1.0     0.602775     0.966960     0.656591  Biso 1.000000     H
    H   1.0     0.705079     0.343459     0.007696  Biso 1.000000     H
    H   1.0     0.520756     0.080961     0.141034  Biso 1.000000     H
    H   1.0     0.781505     0.706789     0.812066  Biso 1.000000     H
    H   1.0     0.914442     0.903878     0.817430  Biso 1.000000     H
    H   1.0     0.718352     0.188275     0.293007  Biso 1.000000     H
    H   1.0     0.737042     0.113939     0.513351  Biso 1.000000     H
    H   1.0     0.059355     0.075988     0.296482  Biso 1.000000     H
    H   1.0     0.171311     0.394478     0.866823  Biso 1.000000     H
    H   1.0     0.756812     0.303232     0.829146  Biso 1.000000     H
    H   1.0     0.455769     0.912653     0.486153  Biso 1.000000     H
    H   1.0     0.218503     0.293198     0.187894  Biso 1.000000     H
    H   1.0     0.680458     0.944993     0.549782  Biso 1.000000     H
    H   1.0     0.044438     0.513881     0.087195  Biso 1.000000     H
    H   1.0     0.828725     0.605462     0.133224  Biso 1.000000     H
    H   1.0     0.444765     0.221802     0.694803  Biso 1.000000     H
    H   1.0     0.459490     0.318323     0.795999  Biso 1.000000     H
    H   1.0     0.328632     0.133054     0.605643  Biso 1.000000     H
    H   1.0     0.911007     0.784306     0.084943  Biso 1.000000     H
    H   1.0     0.479286     0.919043     0.858959  Biso 1.000000     H
    H   1.0     0.986437     0.592717     0.104208  Biso 1.000000     H
    H   1.0     0.959567     0.796054     0.318260  Biso 1.000000     H
    H   1.0     0.780955     0.963414     0.258599  Biso 1.000000     H
    H   1.0     0.845281     0.510139     0.000000  Biso 1.000000     H
    H   1.0     0.040472     0.203886     0.681789  Biso 1.000000     H
    H   1.0     0.955585     0.486122     0.912771  Biso 1.000000     H
    H   1.0     0.819831     0.450089     0.055047  Biso 1.000000     H
    H   1.0     0.020818     0.141095     0.081272  Biso 1.000000     H
    H   1.0     0.585477     0.182090     0.095986  Biso 1.000000     H
    H   1.0     0.281717     0.811764     0.707010  Biso 1.000000     H
    H   1.0     0.940643     0.923975     0.703486  Biso 1.000000     H
    H   1.0     0.486371     0.104300     0.592651  Biso 1.000000     H
    H   1.0     0.600309     0.151844     0.697687  Biso 1.000000     H
    H   1.0     0.154750     0.489868    -0.002883  Biso 1.000000     H
    H   1.0     0.322004     0.591088     0.148710  Biso 1.000000     H
    H   1.0     0.977784     0.958965     0.251721  Biso 1.000000     H
    H   1.0     0.440584     0.703841     0.924104  Biso 1.000000     H
    H   1.0     0.522082     0.748141     0.041365  Biso 1.000000     H
    H   1.0     0.897691     0.343255     0.033008  Biso 1.000000     H
    H   1.0     0.178174     0.851254     0.408802  Biso 1.000000     H
    H   1.0     0.102356     0.656758     0.966972  Biso 1.000000     H
    H   1.0     0.559450     0.296161     0.075882  Biso 1.000000     H
    H   1.0     0.750137     0.819820     0.786261  Biso 1.000000     H
    H   1.0     0.249875     0.180169     0.213704  Biso 1.000000     H
    H   1.0     0.749835     0.214056     0.180031  Biso 1.000000     H
    H   1.0     0.356080     0.673011     0.078417  Biso 1.000000     H
    H   1.0     0.204714     0.007756     0.343534  Biso 1.000000     H
    H   1.0     0.671401     0.866958     0.394330  Biso 1.000000     H
    H   1.0     0.776672     0.136247     0.390231  Biso 1.000000     H
    H   1.0     0.345295     0.000000     0.510203  Biso 1.000000     H
    H   1.0     0.821860     0.148731     0.591180  Biso 1.000000     H
    H   1.0     0.055178     0.305200     0.778201  Biso 1.000000     H
    H   1.0     0.219083     0.036529     0.741451  Biso 1.000000     H
    H   1.0     0.397260     0.033035     0.343411  Biso 1.000000     H
    H   1.0     0.899805     0.302289     0.848121  Biso 1.000000     H
    H   1.0     0.089038     0.215706     0.915039  Biso 1.000000     H
    C   1.0     0.023058     0.853016     0.874048  Biso 1.000000     C
    C   1.0     0.487834     0.818718     0.878270  Biso 1.000000     C
    C   1.0     0.987778     0.878123     0.818391  Biso 1.000000     C
    C   1.0     0.177245     0.811988     0.818957  Biso 1.000000     C
    C   1.0     0.871173     0.791373     0.315365  Biso 1.000000     C
    C   1.0     0.292784     0.293957     0.163124  Biso 1.000000     C
    C   1.0     0.578276     0.651155     0.897641  Biso 1.000000     C
    C   1.0     0.707227     0.831031     0.357250  Biso 1.000000     C
    C   1.0     0.911034     0.350949     0.981984  Biso 1.000000     C
    C   1.0     0.354768     0.237852     0.160217  Biso 1.000000     C
    C   1.0     0.618334     0.877229     0.177225  Biso 1.000000     C
    C   1.0     0.574349     0.165150     0.867239  Biso 1.000000     C
    C   1.0     0.308240     0.264901     0.739586  Biso 1.000000     C
    C   1.0     0.177642     0.163231     0.639007  Biso 1.000000     C
    C   1.0     0.618442     0.874536     0.819304  Biso 1.000000     C
    C   1.0     0.309271     0.220675     0.923869  Biso 1.000000     C
    C   1.0     0.731355     0.876219     0.174799  Biso 1.000000     C
    C   1.0     0.158752     0.793531     0.935623  Biso 1.000000     C
    C   1.0     0.057845     0.568529     0.087835  Biso 1.000000     C
    C   1.0     0.078427     0.897457     0.651054  Biso 1.000000     C
    C   1.0     0.268686     0.123756     0.825217  Biso 1.000000     C
    C   1.0     0.643771     0.781980     0.308179  Biso 1.000000     C
    C   1.0     0.833208     0.455757     0.000000  Biso 1.000000     C
    C   1.0     0.356265     0.218022     0.691804  Biso 1.000000     C
    C   1.0     0.610770     0.586791     0.107131  Biso 1.000000     C
    C   1.0     0.044483     0.129932     0.831588  Biso 1.000000     C
    C   1.0     0.231517     0.174723     0.876063  Biso 1.000000     C
    C   1.0     0.128865     0.208585     0.684665  Biso 1.000000     C
    C   1.0     0.190930     0.075822     0.779405  Biso 1.000000     C
    C   1.0     0.881550     0.822864     0.122904  Biso 1.000000     C
    C   1.0     0.207394     0.836574     0.706124  Biso 1.000000     C
    C   1.0     0.666939    -0.003383     0.544160  Biso 1.000000     C
    C   1.0     0.918524     0.921755     0.217086  Biso 1.000000     C
    C   1.0     0.110717     0.107026     0.586901  Biso 1.000000     C
    C   1.0     0.515507     0.704732     0.900181  Biso 1.000000     C
    C   1.0     0.984443     0.099972     0.295477  Biso 1.000000     C
    C   1.0     0.046853     0.930569     0.593440  Biso 1.000000     C
    C   1.0     0.118403     0.819126     0.874441  Biso 1.000000     C
    C   1.0     0.824660     0.134778     0.347665  Biso 1.000000     C
    C   1.0     0.175393     0.865241     0.652339  Biso 1.000000     C
    C   1.0     0.707230     0.706033     0.836842  Biso 1.000000     C
    C   1.0     0.523160     0.874314     0.853148  Biso 1.000000     C
    C   1.0     0.418692     0.217153     0.921479  Biso 1.000000     C
    C   1.0     0.557790     0.087922     0.568478  Biso 1.000000     C
    C   1.0     0.854701     0.160491     0.237882  Biso 1.000000     C
    C   1.0     0.283278     0.649616     0.043651  Biso 1.000000     C
    C   1.0     0.292807     0.168967     0.642737  Biso 1.000000     C
    C   1.0     0.589292     0.017977     0.648929  Biso 1.000000     C
    C   1.0     0.476875     0.125687     0.146839  Biso 1.000000     C
    C   1.0     0.792660     0.163448     0.293881  Biso 1.000000     C
    C   1.0     0.942182     0.431474     0.912135  Biso 1.000000     C
    C   1.0     0.690772     0.779337     0.076111  Biso 1.000000     C
    C   1.0     0.768526     0.825271     0.123935  Biso 1.000000     C
    C   1.0     0.841273     0.206476     0.064371  Biso 1.000000     C
    C   1.0     0.628950     0.684582     0.208655  Biso 1.000000     C
    C   1.0     0.047799     0.872528     0.761337  Biso 1.000000     C
    C   1.0     0.691798     0.735086     0.260413  Biso 1.000000     C
    C   1.0     0.976938     0.146959     0.125929  Biso 1.000000     C
    C   1.0     0.421749     0.348843     0.102337  Biso 1.000000     C
    C   1.0     0.442242     0.912067     0.431517  Biso 1.000000     C
    C   1.0     0.921605     0.102541     0.348935  Biso 1.000000     C
    C   1.0     0.216533     0.956393     0.350407  Biso 1.000000     C
    C   1.0     0.145333     0.839514     0.762113  Biso 1.000000     C
    C   1.0     0.645252     0.762141     0.839754  Biso 1.000000     C
    C   1.0     0.333089     0.000000     0.455835  Biso 1.000000     C
    C   1.0     0.783502     0.043595     0.649584  Biso 1.000000     C
    C   1.0     0.074169     0.867413     0.165165  Biso 1.000000     C
    C   1.0     0.207142     0.357348     0.830949  Biso 1.000000     C
    C   1.0     0.546734     0.593516     0.930673  Biso 1.000000     C
    C   1.0     0.143682     0.308221     0.781954  Biso 1.000000     C
    C   1.0     0.324824     0.347706     0.134489  Biso 1.000000     C
    C   1.0     0.015572     0.900009     0.704503  Biso 1.000000     C
    C   1.0     0.484521     0.295266     0.099800  Biso 1.000000     C
    C   1.0     0.453293     0.406485     0.069309  Biso 1.000000     C
    C   1.0     0.581352     0.782860     0.078500  Biso 1.000000     C
    C   1.0     0.322317     0.361104     0.836658  Biso 1.000000     C
    C   1.0     0.191706     0.260396     0.735115  Biso 1.000000     C
    C   1.0     0.089007     0.649060     0.017994  Biso 1.000000     C
    C   1.0     0.748398     0.114404     0.567942  Biso 1.000000     C
    C   1.0     0.829292     0.327609     0.864050  Biso 1.000000     C
    C   1.0     0.955559     0.870052     0.168424  Biso 1.000000     C
    C   1.0     0.166827     0.544250    -0.003444  Biso 1.000000     C
    C   1.0     0.856355     0.691721     0.218089  Biso 1.000000     C
    C   1.0     0.953183     0.069430     0.406550  Biso 1.000000     C
    C   1.0     0.012216     0.121845     0.181582  Biso 1.000000     C
    C   1.0     0.677720     0.638880     0.163345  Biso 1.000000     C
    C   1.0     0.547778     0.761535     0.872722  Biso 1.000000     C
    C   1.0     0.881617     0.180872     0.125549  Biso 1.000000     C
    C   1.0     0.425689     0.834847     0.132749  Biso 1.000000     C
    C   1.0     0.410744     0.982017     0.351069  Biso 1.000000     C
    C   1.0     0.081516     0.078209     0.782946  Biso 1.000000     C
    C   1.0     0.751512     0.432096     0.885622  Biso 1.000000     C
    C   1.0     0.544332     0.831610     0.130121  Biso 1.000000     C
    C   1.0     0.329243     0.864083     0.327604  Biso 1.000000     C
    C   1.0     0.822393     0.836748     0.361001  Biso 1.000000     C
    C   1.0     0.248512     0.567902     0.114353  Biso 1.000000     C
    C   1.0     0.822791     0.188022     0.181041  Biso 1.000000     C
    C   1.0     0.952214     0.127456     0.238645  Biso 1.000000     C
    C   1.0     0.322818     0.181057     0.187738  Biso 1.000000     C
    C   1.0     0.341215     0.064350     0.206294  Biso 1.000000     C
    C   1.0     0.381585     0.125461     0.180675  Biso 1.000000     C
    C   1.0     0.675193     0.652286     0.865480  Biso 1.000000     C
    C   1.0     0.512200     0.181283     0.121717  Biso 1.000000     C
    C   1.0     0.716760     0.350388     0.956332  Biso 1.000000     C
    C   1.0     0.452248     0.238462     0.127257  Biso 1.000000     C
    C   1.0     0.251632     0.885582     0.432044  Biso 1.000000     C
    C   1.0     0.670801     0.135910     0.672385  Biso 1.000000     C
    C   1.0     0.118493     0.177133     0.877093  Biso 1.000000     C
    C   1.0     0.792894     0.642606     0.169083  Biso 1.000000     C
    C   1.0     0.808332     0.739564     0.264911  Biso 1.000000     C
    C   1.0     0.371089     0.315415     0.791333  Biso 1.000000     C
    C   1.0     0.889314     0.892963     0.413099  Biso 1.000000     C
    C   1.0     0.809109     0.924136     0.220630  Biso 1.000000     C
    C   1.0     0.381706     0.122747     0.822788  Biso 1.000000     C
    C   1.0     0.677201     0.818936     0.812234  Biso 1.000000     C
    C   1.0     0.170741     0.672391     0.135931  Biso 1.000000     C
    C   1.0     0.389266     0.413205     0.892860  Biso 1.000000     C
    C   1.0     0.455708     0.168386     0.869873  Biso 1.000000     C
    C   1.0     0.925872     0.132581     0.834837  Biso 1.000000     C
    C   1.0     0.658817     0.935647     0.793688  Biso 1.000000     C
    N   1.0     0.312418     0.934017     0.316445  Biso 1.000000     N
    N   1.0     0.071253     0.576521     0.017813  Biso 1.000000     N
    N   1.0     0.653602     0.136388     0.600107  Biso 1.000000     N
    N   1.0     0.928782     0.423487     0.982160  Biso 1.000000     N
    N   1.0     0.346433     0.863602     0.399882  Biso 1.000000     N
    N   1.0     0.732644     0.424418     0.956363  Biso 1.000000     N
    N   1.0     0.571381     0.017868     0.576407  Biso 1.000000     N
    N   1.0     0.812654     0.316400     0.933948  Biso 1.000000     N
    N   1.0     0.187385     0.683605     0.066034  Biso 1.000000     N
    N   1.0     0.846321     0.399903     0.863641  Biso 1.000000     N
    N   1.0     0.687623     0.065977     0.683547  Biso 1.000000     N
    N   1.0     0.232569     0.956352     0.424427  Biso 1.000000     N
    N   1.0     0.767461     0.043634     0.575563  Biso 1.000000     N
    N   1.0     0.428650     0.982123     0.423591  Biso 1.000000     N
    N   1.0     0.153704     0.600096     0.136334  Biso 1.000000     N
    N   1.0     0.267389     0.575585     0.043615  Biso 1.000000     N
    O   1.0     0.611437     0.547875     0.930264  Biso 1.000000     O
    O   1.0     0.161886     0.069967     0.544343  Biso 1.000000     O
    O   1.0     0.863680     0.077768     0.808058  Biso 1.000000     O
    O   1.0     0.338104     0.455798     0.929891  Biso 1.000000     O
    O   1.0     0.226402     0.750912     0.932750  Biso 1.000000     O
    O   1.0     0.888518     0.069837     0.452122  Biso 1.000000     O
    O   1.0     0.491630     0.410619     0.900290  Biso 1.000000     O
    O   1.0     0.363414     0.808040     0.077940  Biso 1.000000     O
    O   1.0     0.388590     0.452127     0.069721  Biso 1.000000     O
    O   1.0     0.508409     0.589383     0.099697  Biso 1.000000     O
    O   1.0     0.620102     0.992207     0.819449  Biso 1.000000     O
    O   1.0     0.379933     0.007790     0.180535  Biso 1.000000     O
    O   1.0     0.636631     0.191969     0.922043  Biso 1.000000     O
    O   1.0     0.958600     0.958221     0.594295  Biso 1.000000     O
    O   1.0     0.606671     0.137371     0.810991  Biso 1.000000     O
    O   1.0     0.991656     0.900356     0.410562  Biso 1.000000     O
    O   1.0     0.008373     0.099639     0.589435  Biso 1.000000     O
    O   1.0     0.773625     0.249096     0.067247  Biso 1.000000     O
    O   1.0     0.661931     0.544201     0.070095  Biso 1.000000     O
    O   1.0     0.393356     0.862614     0.188999  Biso 1.000000     O
    O   1.0     0.041435     0.041777     0.405692  Biso 1.000000     O
    O   1.0     0.136359     0.922227     0.191943  Biso 1.000000     O
    O   1.0     0.273461     0.067346     0.248769  Biso 1.000000     O
    O   1.0     0.838142     0.930027     0.455650  Biso 1.000000     O
    O   1.0     0.106582     0.811149     0.137409  Biso 1.000000     O
    O   1.0     0.458484     0.594400     0.958255  Biso 1.000000     O
    O   1.0     0.541546     0.405605     0.041731  Biso 1.000000     O
    O   1.0     0.120056     0.819462     0.992099  Biso 1.000000     O
    O   1.0     0.893459     0.188848     0.862582  Biso 1.000000     O
    O   1.0     0.879968     0.180548     0.007894  Biso 1.000000     O
    O   1.0     0.726569     0.932649     0.751211  Biso 1.000000     O
    O   1.0     0.111518     0.930161     0.547868  Biso 1.000000     O
   Zn   1.0     0.406952     0.528296     0.016449  Biso 1.000000    Zn
   Zn   1.0     0.093067     0.983525     0.471744  Biso 1.000000    Zn
   Zn   1.0     0.795629     0.211624     0.936212  Biso 1.000000    Zn
   Zn   1.0     0.295430     0.936317     0.211640  Biso 1.000000    Zn
   Zn   1.0     0.593081     0.471708     0.983536  Biso 1.000000    Zn
   Zn   1.0     0.906964     0.016475     0.528245  Biso 1.000000    Zn
   Zn   1.0     0.704611     0.063685     0.788353  Biso 1.000000    Zn
   Zn   1.0     0.204411     0.788383     0.063776  Biso 1.000000    Zn
