#======================================================================

# CRYSTAL DATA

#----------------------------------------------------------------------

data_VESTA_phase_1


_pd_phase_name                         MOF
_cell_length_a                         13.70500
_cell_length_b                         13.73400
_cell_length_c                         27.65400
_cell_angle_alpha                      90.06200
_cell_angle_beta                       90.03300
_cell_angle_gamma                      90.00000
_symmetry_space_group_name_H-M         "P 1"
_symmetry_Int_Tables_number            1

loop_
_symmetry_equiv_pos_as_xyz
   "x, y, z"

loop_
   _atom_site_label
   _atom_site_occupancy
   _atom_site_fract_x
   _atom_site_fract_y
   _atom_site_fract_z
   _atom_site_adp_type
   _atom_site_B_iso_or_equiv
   _atom_site_type_symbol
    H   1.0     0.788980     0.407773     0.090259  Biso 1.000000     H
    H   1.0     0.961075     0.450257     0.080559  Biso 1.000000     H
    H   1.0     0.899332     0.512456     0.929416  Biso 1.000000     H
    H   1.0     0.728577     0.464506     0.945400  Biso 1.000000     H
    H   1.0     0.613486     0.472359     0.044392  Biso 1.000000     H
    H   1.0     0.614765     0.395048     0.991906  Biso 1.000000     H
    H   1.0     0.646349     0.346649     0.050034  Biso 1.000000     H
    H   1.0     0.211034     0.592236     0.909743  Biso 1.000000     H
    H   1.0     0.038940     0.549752     0.919443  Biso 1.000000     H
    H   1.0     0.100682     0.487552     0.070586  Biso 1.000000     H
    H   1.0     0.271437     0.535502     0.054602  Biso 1.000000     H
    H   1.0     0.386529     0.527650     0.955610  Biso 1.000000     H
    H   1.0     0.385249     0.604961     0.008096  Biso 1.000000     H
    H   1.0     0.353665     0.653360     0.949968  Biso 1.000000     H
    H   1.0     0.288794     0.092277     0.909734  Biso 1.000000     H
    H   1.0     0.460913     0.049817     0.919449  Biso 1.000000     H
    H   1.0     0.399431     0.987422     0.070563  Biso 1.000000     H
    H   1.0     0.228649     0.035352     0.054569  Biso 1.000000     H
    H   1.0     0.113356     0.027591     0.955609  Biso 1.000000     H
    H   1.0     0.114788     0.104968     0.008070  Biso 1.000000     H
    H   1.0     0.146227     0.153284     0.949926  Biso 1.000000     H
    H   1.0     0.711220     0.907729     0.090268  Biso 1.000000     H
    H   1.0     0.539101     0.950191     0.080553  Biso 1.000000     H
    H   1.0     0.600584     0.012588     0.929439  Biso 1.000000     H
    H   1.0     0.771365     0.964655     0.945433  Biso 1.000000     H
    H   1.0     0.886659     0.972415     0.044394  Biso 1.000000     H
    H   1.0     0.885226     0.895042     0.991932  Biso 1.000000     H
    H   1.0     0.853785     0.846722     0.050075  Biso 1.000000     H
    H   1.0     0.711316     0.592204     0.590341  Biso 1.000000     H
    H   1.0     0.539216     0.549607     0.580631  Biso 1.000000     H
    H   1.0     0.600452     0.487724     0.429361  Biso 1.000000     H
    H   1.0     0.771230     0.535771     0.445362  Biso 1.000000     H
    H   1.0     0.886674     0.527953     0.544372  Biso 1.000000     H
    H   1.0     0.885173     0.605159     0.491927  Biso 1.000000     H
    H   1.0     0.853715     0.653644     0.550102  Biso 1.000000     H
    H   1.0     0.288695     0.407811     0.409660  Biso 1.000000     H
    H   1.0     0.460794     0.450410     0.419370  Biso 1.000000     H
    H   1.0     0.399562     0.512276     0.570642  Biso 1.000000     H
    H   1.0     0.228785     0.464229     0.554642  Biso 1.000000     H
    H   1.0     0.113337     0.472054     0.455630  Biso 1.000000     H
    H   1.0     0.114841     0.394847     0.508075  Biso 1.000000     H
    H   1.0     0.146299     0.346363     0.449901  Biso 1.000000     H
    H   1.0     0.211137     0.907911     0.409664  Biso 1.000000     H
    H   1.0     0.039058     0.950521     0.419361  Biso 1.000000     H
    H   1.0     0.100555     0.012125     0.570666  Biso 1.000000     H
    H   1.0     0.271293     0.964103     0.554675  Biso 1.000000     H
    H   1.0     0.386551     0.972043     0.455631  Biso 1.000000     H
    H   1.0     0.385191     0.894895     0.508098  Biso 1.000000     H
    H   1.0     0.353591     0.846340     0.449938  Biso 1.000000     H
    H   1.0     0.788880     0.092100     0.590338  Biso 1.000000     H
    H   1.0     0.960959     0.049492     0.580641  Biso 1.000000     H
    H   1.0     0.899460     0.987880     0.429336  Biso 1.000000     H
    H   1.0     0.728722     0.035902     0.445328  Biso 1.000000     H
    H   1.0     0.613466     0.027966     0.544372  Biso 1.000000     H
    H   1.0     0.614824     0.105112     0.491905  Biso 1.000000     H
    H   1.0     0.646424     0.153669     0.550064  Biso 1.000000     H
    C   1.0     0.920918     0.400537     0.170872  Biso 1.000000     C
    C   1.0     0.765684     0.083696     0.159198  Biso 1.000000     C
    C   1.0     0.078241     0.941667     0.089938  Biso 1.000000     C
    C   1.0     0.221562     0.260379     0.087250  Biso 1.000000     C
    C   1.0     0.027843     0.684899     0.113259  Biso 1.000000     C
    C   1.0     0.907387     0.217025     0.005808  Biso 1.000000     C
    C   1.0     0.080676     0.105296     0.237744  Biso 1.000000     C
    C   1.0     0.420695     0.099474     0.829108  Biso 1.000000     C
    C   1.0     0.265559     0.416380     0.840830  Biso 1.000000     C
    C   1.0     0.578212     0.558396     0.910081  Biso 1.000000     C
    C   1.0     0.721546     0.239592     0.912673  Biso 1.000000     C
    C   1.0     0.527801     0.815176     0.886788  Biso 1.000000     C
    C   1.0     0.407385     0.282978     0.994141  Biso 1.000000     C
    C   1.0     0.580760     0.394691     0.762252  Biso 1.000000     C
    C   1.0     0.579337     0.599619     0.670970  Biso 1.000000     C
    C   1.0     0.734477     0.916464     0.659275  Biso 1.000000     C
    C   1.0     0.421838     0.058241     0.589912  Biso 1.000000     C
    C   1.0     0.278569     0.739328     0.587334  Biso 1.000000     C
    C   1.0     0.472101     0.315120     0.613289  Biso 1.000000     C
    C   1.0     0.592736     0.783092     0.505827  Biso 1.000000     C
    C   1.0     0.419129     0.894493     0.737775  Biso 1.000000     C
    C   1.0     0.079112     0.900411     0.329055  Biso 1.000000     C
    C   1.0     0.234364     0.583626     0.340702  Biso 1.000000     C
    C   1.0     0.921815     0.441809     0.410079  Biso 1.000000     C
    C   1.0     0.778566     0.760663     0.412750  Biso 1.000000     C
    C   1.0     0.972077     0.184943     0.386670  Biso 1.000000     C
    C   1.0     0.092737     0.716942     0.494227  Biso 1.000000     C
    C   1.0     0.919225     0.605502     0.262234  Biso 1.000000     C
    C   1.0     0.079099     0.599471     0.829132  Biso 1.000000     C
    C   1.0     0.234330     0.916313     0.840804  Biso 1.000000     C
    C   1.0     0.921773     0.058341     0.910065  Biso 1.000000     C
    C   1.0     0.778453     0.739631     0.912753  Biso 1.000000     C
    C   1.0     0.972172     0.315109     0.886743  Biso 1.000000     C
    C   1.0     0.092628     0.782983     0.994195  Biso 1.000000     C
    C   1.0     0.919339     0.894712     0.762259  Biso 1.000000     C
    C   1.0     0.579319     0.900535     0.170895  Biso 1.000000     C
    C   1.0     0.734457     0.583628     0.159173  Biso 1.000000     C
    C   1.0     0.421803     0.441613     0.089921  Biso 1.000000     C
    C   1.0     0.278469     0.760417     0.087330  Biso 1.000000     C
    C   1.0     0.472213     0.184833     0.113214  Biso 1.000000     C
    C   1.0     0.592629     0.717030     0.005862  Biso 1.000000     C
    C   1.0     0.419254     0.605317     0.237750  Biso 1.000000     C
    C   1.0     0.420677     0.400390     0.329033  Biso 1.000000     C
    C   1.0     0.265538     0.083545     0.340728  Biso 1.000000     C
    C   1.0     0.578176     0.941768     0.410090  Biso 1.000000     C
    C   1.0     0.721446     0.260681     0.412669  Biso 1.000000     C
    C   1.0     0.527913     0.684889     0.386713  Biso 1.000000     C
    C   1.0     0.407278     0.216918     0.494176  Biso 1.000000     C
    C   1.0     0.580886     0.105517     0.262228  Biso 1.000000     C
    C   1.0     0.920904     0.099597     0.670948  Biso 1.000000     C
    C   1.0     0.765651     0.416383     0.659300  Biso 1.000000     C
    C   1.0     0.078200     0.558199     0.589923  Biso 1.000000     C
    C   1.0     0.221448     0.239346     0.587253  Biso 1.000000     C
    C   1.0     0.027938     0.815065     0.613332  Biso 1.000000     C
    C   1.0     0.907277     0.283066     0.505776  Biso 1.000000     C
    C   1.0     0.080790     0.394507     0.737769  Biso 1.000000     C
    C   1.0     0.817189     0.432109     0.055599  Biso 1.000000     C
    C   1.0     0.913931     0.456898     0.049189  Biso 1.000000     C
    C   1.0     0.948115     0.487076     0.003770  Biso 1.000000     C
    C   1.0     0.879681     0.490333     0.965844  Biso 1.000000     C
    C   1.0     0.783633     0.464054     0.973757  Biso 1.000000     C
    C   1.0     0.649686     0.410750     0.026590  Biso 1.000000     C
    C   1.0     0.182825     0.567900     0.944404  Biso 1.000000     C
    C   1.0     0.086084     0.543111     0.950814  Biso 1.000000     C
    C   1.0     0.051900     0.512933     0.996232  Biso 1.000000     C
    C   1.0     0.120334     0.509675     0.034158  Biso 1.000000     C
    C   1.0     0.216381     0.535954     0.026245  Biso 1.000000     C
    C   1.0     0.350328     0.589259     0.973412  Biso 1.000000     C
    C   1.0     0.317069     0.067908     0.944392  Biso 1.000000     C
    C   1.0     0.413826     0.043132     0.950811  Biso 1.000000     C
    C   1.0     0.448093     0.012914     0.996227  Biso 1.000000     C
    C   1.0     0.379721     0.009580     0.034140  Biso 1.000000     C
    C   1.0     0.283655     0.035849     0.026220  Biso 1.000000     C
    C   1.0     0.149618     0.089212     0.973390  Biso 1.000000     C
    C   1.0     0.682944     0.932100     0.055610  Biso 1.000000     C
    C   1.0     0.586187     0.956875     0.049191  Biso 1.000000     C
    C   1.0     0.551921     0.987095     0.003775  Biso 1.000000     C
    C   1.0     0.620293     0.990427     0.965862  Biso 1.000000     C
    C   1.0     0.716359     0.964160     0.973782  Biso 1.000000     C
    C   1.0     0.850396     0.910796     0.026613  Biso 1.000000     C
    C   1.0     0.682995     0.567919     0.555652  Biso 1.000000     C
    C   1.0     0.586250     0.543069     0.549234  Biso 1.000000     C
    C   1.0     0.551920     0.512964     0.503779  Biso 1.000000     C
    C   1.0     0.620218     0.509805     0.465815  Biso 1.000000     C
    C   1.0     0.716276     0.536139     0.473737  Biso 1.000000     C
    C   1.0     0.850364     0.589498     0.526617  Biso 1.000000     C
    C   1.0     0.317017     0.432094     0.444350  Biso 1.000000     C
    C   1.0     0.413762     0.456943     0.450768  Biso 1.000000     C
    C   1.0     0.448092     0.487045     0.496223  Biso 1.000000     C
    C   1.0     0.379795     0.490198     0.534188  Biso 1.000000     C
    C   1.0     0.283737     0.463865     0.526266  Biso 1.000000     C
    C   1.0     0.149649     0.410509     0.473385  Biso 1.000000     C
    C   1.0     0.182875     0.932149     0.444357  Biso 1.000000     C
    C   1.0     0.086145     0.957001     0.450768  Biso 1.000000     C
    C   1.0     0.051893     0.987042     0.496228  Biso 1.000000     C
    C   1.0     0.120251     0.990118     0.534207  Biso 1.000000     C
    C   1.0     0.216294     0.963786     0.526291  Biso 1.000000     C
    C   1.0     0.350293     0.910512     0.473405  Biso 1.000000     C
    C   1.0     0.817141     0.067862     0.555644  Biso 1.000000     C
    C   1.0     0.913872     0.043010     0.549234  Biso 1.000000     C
    C   1.0     0.948123     0.012967     0.503774  Biso 1.000000     C
    C   1.0     0.879765     0.009888     0.465796  Biso 1.000000     C
    C   1.0     0.783722     0.036221     0.473712  Biso 1.000000     C
    C   1.0     0.649723     0.089496     0.526597  Biso 1.000000     C
    N   1.0     0.941564     0.324906     0.154227  Biso 1.000000     N
    N   1.0     0.841509     0.100625     0.141651  Biso 1.000000     N
    N   1.0     0.052126     0.022591     0.093457  Biso 1.000000     N
    N   1.0     0.139720     0.241645     0.095056  Biso 1.000000     N
    N   1.0     0.978026     0.631987     0.135413  Biso 1.000000     N
    N   1.0     0.927334     0.209919     0.046850  Biso 1.000000     N
    N   1.0     0.057236     0.131720     0.199300  Biso 1.000000     N
    N   1.0     0.441377     0.175119     0.845738  Biso 1.000000     N
    N   1.0     0.341458     0.399440     0.858337  Biso 1.000000     N
    N   1.0     0.552121     0.477452     0.906524  Biso 1.000000     N
    N   1.0     0.639681     0.258349     0.904897  Biso 1.000000     N
    N   1.0     0.477923     0.868085     0.864620  Biso 1.000000     N
    N   1.0     0.427390     0.290096     0.953117  Biso 1.000000     N
    N   1.0     0.557202     0.368287     0.800670  Biso 1.000000     N
    N   1.0     0.558723     0.675157     0.654279  Biso 1.000000     N
    N   1.0     0.658581     0.899443     0.641765  Biso 1.000000     N
    N   1.0     0.447948     0.977341     0.593510  Biso 1.000000     N
    N   1.0     0.360461     0.758102     0.595050  Biso 1.000000     N
    N   1.0     0.522008     0.368139     0.635433  Biso 1.000000     N
    N   1.0     0.572780     0.789955     0.546875  Biso 1.000000     N
    N   1.0     0.442692     0.868218     0.699309  Biso 1.000000     N
    N   1.0     0.058533     0.824889     0.345761  Biso 1.000000     N
    N   1.0     0.158542     0.600640     0.358251  Biso 1.000000     N
    N   1.0     0.947960     0.522718     0.406518  Biso 1.000000     N
    N   1.0     0.860435     0.741909     0.405003  Biso 1.000000     N
    N   1.0     0.021923     0.131923     0.364538  Biso 1.000000     N
    N   1.0     0.072849     0.710093     0.453160  Biso 1.000000     N
    N   1.0     0.942667     0.631800     0.300727  Biso 1.000000     N
    N   1.0     0.058453     0.675101     0.845777  Biso 1.000000     N
    N   1.0     0.158506     0.899384     0.858353  Biso 1.000000     N
    N   1.0     0.947889     0.977418     0.906545  Biso 1.000000     N
    N   1.0     0.860294     0.758364     0.904946  Biso 1.000000     N
    N   1.0     0.021989     0.368021     0.864589  Biso 1.000000     N
    N   1.0     0.072680     0.790089     0.953153  Biso 1.000000     N
    N   1.0     0.942779     0.868287     0.800703  Biso 1.000000     N
    N   1.0     0.558637     0.824890     0.154265  Biso 1.000000     N
    N   1.0     0.658557     0.600569     0.141667  Biso 1.000000     N
    N   1.0     0.447895     0.522557     0.093478  Biso 1.000000     N
    N   1.0     0.360334     0.741660     0.095105  Biso 1.000000     N
    N   1.0     0.522091     0.131924     0.135382  Biso 1.000000     N
    N   1.0     0.572626     0.709913     0.046886  Biso 1.000000     N
    N   1.0     0.442812     0.631721     0.199333  Biso 1.000000     N
    N   1.0     0.441290     0.324851     0.345725  Biso 1.000000     N
    N   1.0     0.341434     0.100566     0.358239  Biso 1.000000     N
    N   1.0     0.552067     0.022668     0.406492  Biso 1.000000     N
    N   1.0     0.639554     0.241907     0.404953  Biso 1.000000     N
    N   1.0     0.478007     0.631870     0.364568  Biso 1.000000     N
    N   1.0     0.427235     0.210054     0.453128  Biso 1.000000     N
    N   1.0     0.557322     0.131792     0.300694  Biso 1.000000     N
    N   1.0     0.941484     0.175120     0.654243  Biso 1.000000     N
    N   1.0     0.841474     0.399368     0.641752  Biso 1.000000     N
    N   1.0     0.052055     0.477291     0.593483  Biso 1.000000     N
    N   1.0     0.139580     0.258099     0.595000  Biso 1.000000     N
    N   1.0     0.978091     0.868086     0.635464  Biso 1.000000     N
    N   1.0     0.927165     0.289915     0.546843  Biso 1.000000     N
    N   1.0     0.057347     0.368211     0.699275  Biso 1.000000     N
    N   1.0     0.753237     0.435846     0.018277  Biso 1.000000     N
    N   1.0     0.246778     0.564163     0.981725  Biso 1.000000     N
    N   1.0     0.253185     0.064111     0.981703  Biso 1.000000     N
    N   1.0     0.746830     0.935898     0.018299  Biso 1.000000     N
    N   1.0     0.746811     0.564298     0.518302  Biso 1.000000     N
    N   1.0     0.253201     0.435711     0.481700  Biso 1.000000     N
    N   1.0     0.246757     0.935711     0.481718  Biso 1.000000     N
    N   1.0     0.753259     0.064298     0.518285  Biso 1.000000     N
   Cd   1.0     0.992491     0.173311     0.125098  Biso 1.000000    Cd
   Cd   1.0     0.878976     0.551553     0.190860  Biso 1.000000    Cd
   Cd   1.0     0.122245     0.789218     0.073572  Biso 1.000000    Cd
   Cd   1.0     0.492422     0.326718     0.874853  Biso 1.000000    Cd
   Cd   1.0     0.378777     0.948433     0.809121  Biso 1.000000    Cd
   Cd   1.0     0.622244     0.710836     0.926499  Biso 1.000000    Cd
   Cd   1.0     0.507673     0.826659     0.625132  Biso 1.000000    Cd
   Cd   1.0     0.621174     0.448637     0.690968  Biso 1.000000    Cd
   Cd   1.0     0.377699     0.210604     0.573547  Biso 1.000000    Cd
   Cd   1.0     0.007617     0.673387     0.374922  Biso 1.000000    Cd
   Cd   1.0     0.120990     0.051339     0.309055  Biso 1.000000    Cd
   Cd   1.0     0.877711     0.289432     0.426388  Biso 1.000000    Cd
   Cd   1.0     0.007524     0.826697     0.874905  Biso 1.000000    Cd
   Cd   1.0     0.121040     0.448455     0.809143  Biso 1.000000    Cd
   Cd   1.0     0.877770     0.210791     0.926430  Biso 1.000000    Cd
   Cd   1.0     0.507593     0.673290     0.125150  Biso 1.000000    Cd
   Cd   1.0     0.621237     0.051576     0.190882  Biso 1.000000    Cd
   Cd   1.0     0.377770     0.289174     0.073503  Biso 1.000000    Cd
   Cd   1.0     0.492342     0.173350     0.374871  Biso 1.000000    Cd
   Cd   1.0     0.378840     0.551371     0.309034  Biso 1.000000    Cd
   Cd   1.0     0.622315     0.789405     0.426455  Biso 1.000000    Cd
   Cd   1.0     0.992398     0.326622     0.625081  Biso 1.000000    Cd
   Cd   1.0     0.879025     0.948669     0.690948  Biso 1.000000    Cd
   Cd   1.0     0.122304     0.710577     0.573614  Biso 1.000000    Cd
