#======================================================================

# CRYSTAL DATA

#----------------------------------------------------------------------

data_VESTA_phase_1


_pd_phase_name                         MOF
_cell_length_a                         13.81500
_cell_length_b                         13.85700
_cell_length_c                         27.26300
_cell_angle_alpha                      90.01500
_cell_angle_beta                       90.01500
_cell_angle_gamma                      90.00200
_symmetry_space_group_name_H-M         "P 1"
_symmetry_Int_Tables_number            1

loop_
_symmetry_equiv_pos_as_xyz
   "x, y, z"

loop_
   _atom_site_label
   _atom_site_occupancy
   _atom_site_fract_x
   _atom_site_fract_y
   _atom_site_fract_z
   _atom_site_adp_type
   _atom_site_B_iso_or_equiv
   _atom_site_type_symbol
    H   1.0     0.786422     0.382012     0.081865  Biso 1.000000     H
    H   1.0     0.960932     0.415692     0.073866  Biso 1.000000     H
    H   1.0     0.898754     0.551457     0.933551  Biso 1.000000     H
    H   1.0     0.727071     0.508543     0.946752  Biso 1.000000     H
    H   1.0     0.638405     0.379170     0.053296  Biso 1.000000     H
    H   1.0     0.610107     0.494956     0.028119  Biso 1.000000     H
    H   1.0     0.619519     0.392093    -0.011851  Biso 1.000000     H
    H   1.0     0.213598     0.617958     0.918134  Biso 1.000000     H
    H   1.0     0.039087     0.584281     0.926134  Biso 1.000000     H
    H   1.0     0.101257     0.448571     0.066464  Biso 1.000000     H
    H   1.0     0.272942     0.491471     0.053259  Biso 1.000000     H
    H   1.0     0.361611     0.620830     0.946710  Biso 1.000000     H
    H   1.0     0.389901     0.505046     0.971890  Biso 1.000000     H
    H   1.0     0.380502     0.607911     0.000000  Biso 1.000000     H
    H   1.0     0.487186     0.329087     0.199245  Biso 1.000000     H
    H   1.0     0.584647     0.322849     0.241838  Biso 1.000000     H
    H   1.0     0.552195     0.436199     0.214415  Biso 1.000000     H
    H   1.0     0.286338     0.117976     0.918145  Biso 1.000000     H
    H   1.0     0.460858     0.084306     0.926146  Biso 1.000000     H
    H   1.0     0.398796     0.948495     0.066449  Biso 1.000000     H
    H   1.0     0.227110    -0.008608     0.053246  Biso 1.000000     H
    H   1.0     0.138352     0.120833     0.946723  Biso 1.000000     H
    H   1.0     0.110080     0.005038     0.971888  Biso 1.000000     H
    H   1.0     0.119534     0.107882     0.000000  Biso 1.000000     H
    H   1.0     0.713680     0.882029     0.081863  Biso 1.000000     H
    H   1.0     0.539162     0.915709     0.073864  Biso 1.000000     H
    H   1.0     0.601215     0.051469     0.933548  Biso 1.000000     H
    H   1.0     0.772902     0.000000     0.946751  Biso 1.000000     H
    H   1.0     0.861664     0.879163     0.053282  Biso 1.000000     H
    H   1.0     0.889939     0.994957     0.028117  Biso 1.000000     H
    H   1.0     0.880481     0.892113    -0.011865  Biso 1.000000     H
    H   1.0    -0.012901     0.170775     0.800715  Biso 1.000000     H
    H   1.0     0.084559     0.177095     0.758149  Biso 1.000000     H
    H   1.0     0.052198     0.063720     0.785567  Biso 1.000000     H
    H   1.0     0.713711     0.617959     0.581890  Biso 1.000000     H
    H   1.0     0.539193     0.584256     0.573896  Biso 1.000000     H
    H   1.0     0.601186     0.448584     0.433508  Biso 1.000000     H
    H   1.0     0.772883     0.491498     0.446713  Biso 1.000000     H
    H   1.0     0.861679     0.620900     0.553284  Biso 1.000000     H
    H   1.0     0.889945     0.505093     0.528101  Biso 1.000000     H
    H   1.0     0.880489     0.607918     0.488133  Biso 1.000000     H
    H   1.0     0.286315     0.381997     0.418123  Biso 1.000000     H
    H   1.0     0.460835     0.415691     0.426119  Biso 1.000000     H
    H   1.0     0.398824     0.551475     0.566477  Biso 1.000000     H
    H   1.0     0.227130     0.508548     0.553277  Biso 1.000000     H
    H   1.0     0.138340     0.379102     0.446718  Biso 1.000000     H
    H   1.0     0.110072     0.494912     0.471897  Biso 1.000000     H
    H   1.0     0.119530     0.392091     0.511868  Biso 1.000000     H
    H   1.0     0.000000     0.670835     0.699316  Biso 1.000000     H
    H   1.0     0.915513     0.677172     0.741886  Biso 1.000000     H
    H   1.0     0.947865     0.563783     0.714451  Biso 1.000000     H
    H   1.0     0.213588     0.882001     0.418115  Biso 1.000000     H
    H   1.0     0.039086     0.915727     0.426106  Biso 1.000000     H
    H   1.0     0.101250     0.051368     0.566499  Biso 1.000000     H
    H   1.0     0.272918     0.000000     0.553299  Biso 1.000000     H
    H   1.0     0.361583     0.879034     0.446721  Biso 1.000000     H
    H   1.0     0.389894     0.994821     0.471921  Biso 1.000000     H
    H   1.0     0.380462     0.891976     0.511875  Biso 1.000000     H
    H   1.0     0.786435     0.118029     0.581881  Biso 1.000000     H
    H   1.0     0.960935     0.084287     0.573895  Biso 1.000000     H
    H   1.0     0.898760     0.948584     0.433518  Biso 1.000000     H
    H   1.0     0.727098    -0.008447     0.446711  Biso 1.000000     H
    H   1.0     0.638435     0.120954     0.553285  Biso 1.000000     H
    H   1.0     0.610106     0.005166     0.528088  Biso 1.000000     H
    H   1.0     0.619567     0.108007     0.488133  Biso 1.000000     H
    H   1.0     0.512841     0.829195     0.300741  Biso 1.000000     H
    H   1.0     0.415394     0.822891     0.258139  Biso 1.000000     H
    H   1.0     0.447769     0.936263     0.285596  Biso 1.000000     H
    H   1.0     0.512828     0.670905     0.800760  Biso 1.000000     H
    H   1.0     0.415368     0.677144     0.758167  Biso 1.000000     H
    H   1.0     0.447818     0.563793     0.785589  Biso 1.000000     H
    H   1.0     0.000000     0.829220     0.199291  Biso 1.000000     H
    H   1.0     0.915457     0.822898     0.241857  Biso 1.000000     H
    H   1.0     0.947816     0.936274     0.214439  Biso 1.000000     H
    H   1.0    -0.012949     0.329156     0.300690  Biso 1.000000     H
    H   1.0     0.084503     0.322824     0.258119  Biso 1.000000     H
    H   1.0     0.052149     0.436210     0.285556  Biso 1.000000     H
    H   1.0     0.487174     0.170800     0.699264  Biso 1.000000     H
    H   1.0     0.584621     0.177100     0.741865  Biso 1.000000     H
    H   1.0     0.552243     0.063730     0.714407  Biso 1.000000     H
    C   1.0     0.926216     0.388526     0.168522  Biso 1.000000     C
    C   1.0     0.772163     0.072957     0.158533  Biso 1.000000     C
    C   1.0     0.079359     0.924822     0.096812  Biso 1.000000     C
    C   1.0     0.228332     0.242620     0.086118  Biso 1.000000     C
    C   1.0     0.025220     0.667650     0.106691  Biso 1.000000     C
    C   1.0     0.914751     0.207453     0.008537  Biso 1.000000     C
    C   1.0     0.083962     0.096480     0.245447  Biso 1.000000     C
    C   1.0     0.426118     0.111458     0.831467  Biso 1.000000     C
    C   1.0     0.272113     0.427074     0.841498  Biso 1.000000     C
    C   1.0     0.579351     0.575190     0.903206  Biso 1.000000     C
    C   1.0     0.728324     0.257350     0.913854  Biso 1.000000     C
    C   1.0     0.525206     0.832352     0.893324  Biso 1.000000     C
    C   1.0     0.414749     0.292530     0.991449  Biso 1.000000     C
    C   1.0     0.584010     0.403498     0.754564  Biso 1.000000     C
    C   1.0     0.573900     0.611490     0.668566  Biso 1.000000     C
    C   1.0     0.727921     0.927087     0.658549  Biso 1.000000     C
    C   1.0     0.420687     0.075156     0.596803  Biso 1.000000     C
    C   1.0     0.271709     0.757317     0.586158  Biso 1.000000     C
    C   1.0     0.474798     0.332334     0.606701  Biso 1.000000     C
    C   1.0     0.585305     0.792562     0.508550  Biso 1.000000     C
    C   1.0     0.415986     0.903473     0.745451  Biso 1.000000     C
    C   1.0     0.073801     0.888490     0.331450  Biso 1.000000     C
    C   1.0     0.227840     0.572908     0.341437  Biso 1.000000     C
    C   1.0     0.920651     0.424832     0.403183  Biso 1.000000     C
    C   1.0     0.771701     0.742686     0.413865  Biso 1.000000     C
    C   1.0     0.974764     0.167643     0.393292  Biso 1.000000     C
    C   1.0     0.085273     0.707425     0.491473  Biso 1.000000     C
    C   1.0     0.916006     0.596516     0.254540  Biso 1.000000     C
    C   1.0     0.073796     0.611466     0.831482  Biso 1.000000     C
    C   1.0     0.227849     0.927037     0.841471  Biso 1.000000     C
    C   1.0     0.920654     0.075170     0.903192  Biso 1.000000     C
    C   1.0     0.771680     0.757374     0.913887  Biso 1.000000     C
    C   1.0     0.974790     0.332344     0.893314  Biso 1.000000     C
    C   1.0     0.085262     0.792536     0.991467  Biso 1.000000     C
    C   1.0     0.916049     0.903516     0.754558  Biso 1.000000     C
    C   1.0     0.573894     0.888536     0.168538  Biso 1.000000     C
    C   1.0     0.727899     0.572918     0.158506  Biso 1.000000     C
    C   1.0     0.420662     0.424804     0.096800  Biso 1.000000     C
    C   1.0     0.271687     0.742642     0.086152  Biso 1.000000     C
    C   1.0     0.474805     0.167642     0.106681  Biso 1.000000     C
    C   1.0     0.585261     0.707468     0.008557  Biso 1.000000     C
    C   1.0     0.416002     0.596491     0.245442  Biso 1.000000     C
    C   1.0     0.426112     0.388500     0.331440  Biso 1.000000     C
    C   1.0     0.272090     0.072908     0.341456  Biso 1.000000     C
    C   1.0     0.579326     0.924834     0.403204  Biso 1.000000     C
    C   1.0     0.728302     0.242678     0.413848  Biso 1.000000     C
    C   1.0     0.525212     0.667657     0.393303  Biso 1.000000     C
    C   1.0     0.414707     0.207421     0.491455  Biso 1.000000     C
    C   1.0     0.584027     0.096521     0.254554  Biso 1.000000     C
    C   1.0     0.926211     0.111507     0.668554  Biso 1.000000     C
    C   1.0     0.772172     0.427083     0.658568  Biso 1.000000     C
    C   1.0     0.079361     0.575164     0.596820  Biso 1.000000     C
    C   1.0     0.228310     0.257306     0.586138  Biso 1.000000     C
    C   1.0     0.025246     0.832352     0.606713  Biso 1.000000     C
    C   1.0     0.914738     0.292576     0.508531  Biso 1.000000     C
    C   1.0     0.084008     0.403477     0.745464  Biso 1.000000     C
    C   1.0     0.815991     0.419798     0.050089  Biso 1.000000     C
    C   1.0     0.913527     0.440061     0.044624  Biso 1.000000     C
    C   1.0     0.947928     0.488764     0.003048  Biso 1.000000     C
    C   1.0     0.879034     0.514258     0.967189  Biso 1.000000     C
    C   1.0     0.782582     0.491859     0.973759  Biso 1.000000     C
    C   1.0     0.647411     0.426308     0.021481  Biso 1.000000     C
    C   1.0     0.184026     0.580195     0.949917  Biso 1.000000     C
    C   1.0     0.086492     0.559915     0.955377  Biso 1.000000     C
    C   1.0     0.052087     0.511236     0.996960  Biso 1.000000     C
    C   1.0     0.120981     0.485747     0.032820  Biso 1.000000     C
    C   1.0     0.217430     0.508161     0.026253  Biso 1.000000     C
    C   1.0     0.352604     0.573698     0.978528  Biso 1.000000     C
    C   1.0     0.625080     0.340732     0.168010  Biso 1.000000     C
    C   1.0     0.559001     0.358153     0.208204  Biso 1.000000     C
    C   1.0     0.315941     0.080210     0.949927  Biso 1.000000     C
    C   1.0     0.413476     0.059915     0.955382  Biso 1.000000     C
    C   1.0     0.447924     0.011231     0.996962  Biso 1.000000     C
    C   1.0     0.379046     0.985694     0.032811  Biso 1.000000     C
    C   1.0     0.282601     0.008120     0.026250  Biso 1.000000     C
    C   1.0     0.147391     0.073686     0.978535  Biso 1.000000     C
    C   1.0     0.684078     0.919796     0.050081  Biso 1.000000     C
    C   1.0     0.586541     0.940083     0.044624  Biso 1.000000     C
    C   1.0     0.552092     0.988760     0.003042  Biso 1.000000     C
    C   1.0     0.620967     0.014279     0.967188  Biso 1.000000     C
    C   1.0     0.717413     0.991863     0.973752  Biso 1.000000     C
    C   1.0     0.852625     0.926311     0.021471  Biso 1.000000     C
    C   1.0     0.125000     0.159255     0.831991  Biso 1.000000     C
    C   1.0     0.058939     0.141773     0.791777  Biso 1.000000     C
    C   1.0     0.684099     0.580205     0.550096  Biso 1.000000     C
    C   1.0     0.586562     0.559908     0.544641  Biso 1.000000     C
    C   1.0     0.552100     0.511248     0.503042  Biso 1.000000     C
    C   1.0     0.620949     0.485754     0.467163  Biso 1.000000     C
    C   1.0     0.717405     0.508183     0.473727  Biso 1.000000     C
    C   1.0     0.852635     0.573736     0.521465  Biso 1.000000     C
    C   1.0     0.315924     0.419774     0.449911  Biso 1.000000     C
    C   1.0     0.413462     0.440061     0.455369  Biso 1.000000     C
    C   1.0     0.447919     0.488754     0.496958  Biso 1.000000     C
    C   1.0     0.379066     0.514273     0.532831  Biso 1.000000     C
    C   1.0     0.282610     0.491849     0.526266  Biso 1.000000     C
    C   1.0     0.147383     0.426270     0.478535  Biso 1.000000     C
    C   1.0     0.875060     0.659295     0.668044  Biso 1.000000     C
    C   1.0     0.941126     0.641833     0.708253  Biso 1.000000     C
    C   1.0     0.184011     0.919737     0.449915  Biso 1.000000     C
    C   1.0     0.086488     0.940075     0.455362  Biso 1.000000     C
    C   1.0     0.052078     0.988728     0.496964  Biso 1.000000     C
    C   1.0     0.120977     0.014206     0.532842  Biso 1.000000     C
    C   1.0     0.217408     0.991740     0.526287  Biso 1.000000     C
    C   1.0     0.352580     0.926177     0.478547  Biso 1.000000     C
    C   1.0     0.816005     0.080251     0.550093  Biso 1.000000     C
    C   1.0     0.913534     0.059946     0.544637  Biso 1.000000     C
    C   1.0     0.947938     0.011255     0.503045  Biso 1.000000     C
    C   1.0     0.879040     0.985781     0.467165  Biso 1.000000     C
    C   1.0     0.782604     0.008219     0.473728  Biso 1.000000     C
    C   1.0     0.647435     0.073801     0.521463  Biso 1.000000     C
    C   1.0     0.374933     0.840744     0.331970  Biso 1.000000     C
    C   1.0     0.441010     0.858212     0.291785  Biso 1.000000     C
    C   1.0     0.374934     0.659259     0.831995  Biso 1.000000     C
    C   1.0     0.441013     0.641839     0.791800  Biso 1.000000     C
    C   1.0     0.875015     0.840740     0.168015  Biso 1.000000     C
    C   1.0     0.941076     0.858221     0.208229  Biso 1.000000     C
    C   1.0     0.124956     0.340696     0.331962  Biso 1.000000     C
    C   1.0     0.058889     0.358160     0.291753  Biso 1.000000     C
    C   1.0     0.625081     0.159250     0.668034  Biso 1.000000     C
    C   1.0     0.559004     0.141782     0.708220  Biso 1.000000     C
    N   1.0     0.957156     0.314244     0.155432  Biso 1.000000     N
    N   1.0     0.851261     0.093990     0.147690  Biso 1.000000     N
    N   1.0     0.056844     0.005050     0.104010  Biso 1.000000     N
    N   1.0     0.149019     0.221522     0.096815  Biso 1.000000     N
    N   1.0     0.975672     0.613368     0.127899  Biso 1.000000     N
    N   1.0     0.939042     0.190058     0.048734  Biso 1.000000     N
    N   1.0     0.062172     0.125630     0.206730  Biso 1.000000     N
    N   1.0     0.457044     0.185755     0.844556  Biso 1.000000     N
    N   1.0     0.351229     0.406026     0.852318  Biso 1.000000     N
    N   1.0     0.556846     0.494952     0.895998  Biso 1.000000     N
    N   1.0     0.648999     0.278457     0.903168  Biso 1.000000     N
    N   1.0     0.475629     0.886621     0.872102  Biso 1.000000     N
    N   1.0     0.439055     0.309927     0.951260  Biso 1.000000     N
    N   1.0     0.562153     0.374370     0.793270  Biso 1.000000     N
    N   1.0     0.542984     0.685763     0.655459  Biso 1.000000     N
    N   1.0     0.648804     0.906028     0.647730  Biso 1.000000     N
    N   1.0     0.443206     0.994939     0.604017  Biso 1.000000     N
    N   1.0     0.351048     0.778418     0.596829  Biso 1.000000     N
    N   1.0     0.524388     0.386629     0.627914  Biso 1.000000     N
    N   1.0     0.561009     0.809905     0.548751  Biso 1.000000     N
    N   1.0     0.437844     0.874381     0.706730  Biso 1.000000     N
    N   1.0     0.042899     0.814217     0.344562  Biso 1.000000     N
    N   1.0     0.148742     0.593951     0.352280  Biso 1.000000     N
    N   1.0     0.943158     0.505061     0.395977  Biso 1.000000     N
    N   1.0     0.851022     0.721580     0.403184  Biso 1.000000     N
    N   1.0     0.024311     0.113337     0.372086  Biso 1.000000     N
    N   1.0     0.060994     0.690067     0.451265  Biso 1.000000     N
    N   1.0     0.937806     0.625630     0.293271  Biso 1.000000     N
    N   1.0     0.042855     0.685748     0.844572  Biso 1.000000     N
    N   1.0     0.148751     0.906003     0.852314  Biso 1.000000     N
    N   1.0     0.943169     0.994942     0.895995  Biso 1.000000     N
    N   1.0     0.850993     0.778471     0.903190  Biso 1.000000     N
    N   1.0     0.024339     0.386625     0.872105  Biso 1.000000     N
    N   1.0     0.060971     0.809931     0.951271  Biso 1.000000     N
    N   1.0     0.937840     0.874364     0.793274  Biso 1.000000     N
    N   1.0     0.542967     0.814239     0.155450  Biso 1.000000     N
    N   1.0     0.648783     0.593967     0.147687  Biso 1.000000     N
    N   1.0     0.443166     0.505043     0.104008  Biso 1.000000     N
    N   1.0     0.351012     0.721536     0.096838  Biso 1.000000     N
    N   1.0     0.524382     0.113372     0.127902  Biso 1.000000     N
    N   1.0     0.560956     0.690071     0.048745  Biso 1.000000     N
    N   1.0     0.437860     0.625622     0.206736  Biso 1.000000     N
    N   1.0     0.457029     0.314227     0.344548  Biso 1.000000     N
    N   1.0     0.351209     0.093964     0.352274  Biso 1.000000     N
    N   1.0     0.556807     0.005050     0.395989  Biso 1.000000     N
    N   1.0     0.648963     0.221574     0.403177  Biso 1.000000     N
    N   1.0     0.475621     0.613361     0.372091  Biso 1.000000     N
    N   1.0     0.439003     0.190078     0.451255  Biso 1.000000     N
    N   1.0     0.562169     0.125611     0.293275  Biso 1.000000     N
    N   1.0     0.957113     0.185778     0.655442  Biso 1.000000     N
    N   1.0     0.851270     0.406043     0.647726  Biso 1.000000     N
    N   1.0     0.056854     0.494936     0.604027  Biso 1.000000     N
    N   1.0     0.148989     0.278414     0.596819  Biso 1.000000     N
    N   1.0     0.975699     0.886659     0.627919  Biso 1.000000     N
    N   1.0     0.939017     0.309934     0.548739  Biso 1.000000     N
    N   1.0     0.062209     0.374365     0.706733  Biso 1.000000     N
    N   1.0     0.751874     0.446066     0.014978  Biso 1.000000     N
    N   1.0     0.248143     0.553926     0.985027  Biso 1.000000     N
    N   1.0     0.678031     0.327444     0.135405  Biso 1.000000     N
    N   1.0     0.251855     0.053891     0.985026  Biso 1.000000     N
    N   1.0     0.748160     0.946096     0.014977  Biso 1.000000     N
    N   1.0     0.177934     0.172589     0.864611  Biso 1.000000     N
    N   1.0     0.748168     0.553947     0.514971  Biso 1.000000     N
    N   1.0     0.251851     0.446054     0.485030  Biso 1.000000     N
    N   1.0     0.822123     0.672614     0.635427  Biso 1.000000     N
    N   1.0     0.248126     0.945999     0.485035  Biso 1.000000     N
    N   1.0     0.751893     0.054004     0.514968  Biso 1.000000     N
    N   1.0     0.321984     0.827419     0.364568  Biso 1.000000     N
    N   1.0     0.321983     0.672547     0.864599  Biso 1.000000     N
    N   1.0     0.822080     0.827407     0.135395  Biso 1.000000     N
    N   1.0     0.177893     0.327375     0.364578  Biso 1.000000     N
    N   1.0     0.678031     0.172576     0.635436  Biso 1.000000     N
   Cd   1.0     0.000000     0.159840     0.128830  Biso 1.000000    Cd
   Cd   1.0     0.874627     0.537019     0.182804  Biso 1.000000    Cd
   Cd   1.0     0.118125     0.777153     0.070948  Biso 1.000000    Cd
   Cd   1.0     0.501330     0.340155     0.871158  Biso 1.000000    Cd
   Cd   1.0     0.374558     0.962947     0.817175  Biso 1.000000    Cd
   Cd   1.0     0.618127     0.722859     0.929086  Biso 1.000000    Cd
   Cd   1.0     0.498718     0.840147     0.628847  Biso 1.000000    Cd
   Cd   1.0     0.625451     0.462988     0.682858  Biso 1.000000    Cd
   Cd   1.0     0.381868     0.222799     0.570941  Biso 1.000000    Cd
   Cd   1.0    -0.001342     0.659838     0.371166  Biso 1.000000    Cd
   Cd   1.0     0.125354     0.036980     0.317165  Biso 1.000000    Cd
   Cd   1.0     0.881877     0.277185     0.429040  Biso 1.000000    Cd
   Cd   1.0    -0.001358     0.840152     0.871174  Biso 1.000000    Cd
   Cd   1.0     0.125384     0.462972     0.817200  Biso 1.000000    Cd
   Cd   1.0     0.881886     0.222839     0.929057  Biso 1.000000    Cd
   Cd   1.0     0.498682     0.659839     0.128848  Biso 1.000000    Cd
   Cd   1.0     0.625453     0.037047     0.182830  Biso 1.000000    Cd
   Cd   1.0     0.381883     0.277137     0.070920  Biso 1.000000    Cd
   Cd   1.0     0.501296     0.159842     0.371158  Biso 1.000000    Cd
   Cd   1.0     0.374560     0.537001     0.317147  Biso 1.000000    Cd
   Cd   1.0     0.618143     0.777190     0.429065  Biso 1.000000    Cd
   Cd   1.0     0.000000     0.340159     0.628838  Biso 1.000000    Cd
   Cd   1.0     0.874657     0.963018     0.682840  Biso 1.000000    Cd
   Cd   1.0     0.118133     0.722814     0.570964  Biso 1.000000    Cd
