#======================================================================

# CRYSTAL DATA

#----------------------------------------------------------------------

data_VESTA_phase_1


_pd_phase_name                         MOF
_cell_length_a                         14.86400
_cell_length_b                         13.09600
_cell_length_c                         13.10000
_cell_angle_alpha                      92.40900
_cell_angle_beta                       95.21800
_cell_angle_gamma                      84.85700
_symmetry_space_group_name_H-M         "P 1"
_symmetry_Int_Tables_number            1

loop_
_symmetry_equiv_pos_as_xyz
   "x, y, z"

loop_
   _atom_site_label
   _atom_site_occupancy
   _atom_site_fract_x
   _atom_site_fract_y
   _atom_site_fract_z
   _atom_site_adp_type
   _atom_site_B_iso_or_equiv
   _atom_site_type_symbol
    H   1.0     0.041375     0.487136     0.720271  Biso 1.000000     H
    H   1.0     0.541380     0.487136     0.720271  Biso 1.000000     H
    H   1.0     0.070716     0.610286     0.736433  Biso 1.000000     H
    H   1.0     0.570721     0.610286     0.736432  Biso 1.000000     H
    H   1.0     0.464920     0.727704     0.134244  Biso 1.000000     H
    H   1.0     0.964925     0.727704     0.134244  Biso 1.000000     H
    H   1.0     0.422783     0.796996     0.031082  Biso 1.000000     H
    H   1.0     0.922789     0.796997     0.031081  Biso 1.000000     H
    H   1.0     0.242407     0.588117     0.837030  Biso 1.000000     H
    H   1.0     0.742412     0.588118     0.837029  Biso 1.000000     H
    H   1.0     0.270300     0.688594     0.044523  Biso 1.000000     H
    H   1.0     0.770305     0.688593     0.044523  Biso 1.000000     H
    H   1.0     0.458441     0.720136     0.486963  Biso 1.000000     H
    H   1.0     0.958447     0.720137     0.486962  Biso 1.000000     H
    H   1.0     0.428928     0.736479     0.609912  Biso 1.000000     H
    H   1.0     0.928933     0.736480     0.609911  Biso 1.000000     H
    H   1.0     0.035683     0.133530     0.726359  Biso 1.000000     H
    H   1.0     0.535689     0.133530     0.726360  Biso 1.000000     H
    H   1.0     0.077184     0.030649     0.796264  Biso 1.000000     H
    H   1.0     0.577189     0.030649     0.796266  Biso 1.000000     H
    H   1.0     0.257356     0.837244     0.588343  Biso 1.000000     H
    H   1.0     0.757361     0.837244     0.588343  Biso 1.000000     H
    H   1.0     0.229390     0.044959     0.689166  Biso 1.000000     H
    H   1.0     0.729395     0.044960     0.689168  Biso 1.000000     H
    H   1.0     0.458633     0.512871     0.279713  Biso 1.000000     H
    H   1.0     0.958638     0.512871     0.279712  Biso 1.000000     H
    H   1.0     0.429288     0.389725     0.263546  Biso 1.000000     H
    H   1.0     0.929293     0.389725     0.263545  Biso 1.000000     H
    H   1.0     0.035086     0.272304     0.865754  Biso 1.000000     H
    H   1.0     0.535092     0.272303     0.865753  Biso 1.000000     H
    H   1.0     0.077227     0.203012     0.968914  Biso 1.000000     H
    H   1.0     0.577231     0.203011     0.968915  Biso 1.000000     H
    H   1.0     0.257598     0.411889     0.162949  Biso 1.000000     H
    H   1.0     0.757602     0.411889     0.162948  Biso 1.000000     H
    H   1.0     0.229711     0.311415     0.955475  Biso 1.000000     H
    H   1.0     0.729715     0.311415     0.955474  Biso 1.000000     H
    H   1.0     0.041568     0.279879     0.513031  Biso 1.000000     H
    H   1.0     0.541573     0.279880     0.513031  Biso 1.000000     H
    H   1.0     0.071076     0.263543     0.390078  Biso 1.000000     H
    H   1.0     0.571081     0.263544     0.390078  Biso 1.000000     H
    H   1.0     0.464324     0.866473     0.273635  Biso 1.000000     H
    H   1.0     0.964329     0.866473     0.273634  Biso 1.000000     H
    H   1.0     0.422825     0.969356     0.203731  Biso 1.000000     H
    H   1.0     0.922831     0.969356     0.203730  Biso 1.000000     H
    H   1.0     0.242649     0.162777     0.411652  Biso 1.000000     H
    H   1.0     0.742654     0.162778     0.411652  Biso 1.000000     H
    H   1.0     0.270620     0.955044     0.310825  Biso 1.000000     H
    H   1.0     0.770625     0.955044     0.310825  Biso 1.000000     H
    H   1.0     0.486126     0.325979     0.674304  Biso 1.000000     H
    H   1.0     0.986131     0.325979     0.674304  Biso 1.000000     H
    H   1.0     0.013885     0.674014     0.325702  Biso 1.000000     H
    H   1.0     0.513890     0.674014     0.325703  Biso 1.000000     H
    C   1.0     0.308766     0.607803     0.820569  Biso 1.000000     C
    C   1.0     0.808771     0.607803     0.820568  Biso 1.000000     C
    C   1.0     0.446669     0.593964     0.780289  Biso 1.000000     C
    C   1.0     0.946674     0.593964     0.780289  Biso 1.000000     C
    C   1.0     0.199405     0.711262     0.022700  Biso 1.000000     C
    C   1.0     0.699410     0.711261     0.022700  Biso 1.000000     C
    C   1.0     0.054644     0.739019     0.028586  Biso 1.000000     C
    C   1.0     0.554650     0.739018     0.028586  Biso 1.000000     C
    C   1.0     0.190970     0.820759     0.607900  Biso 1.000000     C
    C   1.0     0.690975     0.820759     0.607900  Biso 1.000000     C
    C   1.0     0.053024     0.780443     0.593856  Biso 1.000000     C
    C   1.0     0.553030     0.780442     0.593856  Biso 1.000000     C
    C   1.0     0.300323     0.022938     0.711446  Biso 1.000000     C
    C   1.0     0.800327     0.022939     0.711447  Biso 1.000000     C
    C   1.0     0.445215     0.028509     0.738567  Biso 1.000000     C
    C   1.0     0.945219     0.028509     0.738567  Biso 1.000000     C
    C   1.0     0.191239     0.392203     0.179410  Biso 1.000000     C
    C   1.0     0.691243     0.392203     0.179410  Biso 1.000000     C
    C   1.0     0.053336     0.406043     0.219690  Biso 1.000000     C
    C   1.0     0.553341     0.406042     0.219691  Biso 1.000000     C
    C   1.0     0.300605     0.288745     0.977299  Biso 1.000000     C
    C   1.0     0.800610     0.288745     0.977298  Biso 1.000000     C
    C   1.0     0.445366     0.260988     0.971413  Biso 1.000000     C
    C   1.0     0.945371     0.260989     0.971413  Biso 1.000000     C
    C   1.0     0.309036     0.179262     0.392095  Biso 1.000000     C
    C   1.0     0.809040     0.179262     0.392095  Biso 1.000000     C
    C   1.0     0.446981     0.219578     0.406138  Biso 1.000000     C
    C   1.0     0.946986     0.219577     0.406138  Biso 1.000000     C
    C   1.0     0.199687     0.977064     0.288548  Biso 1.000000     C
    C   1.0     0.699693     0.977064     0.288549  Biso 1.000000     C
    C   1.0     0.054795     0.971492     0.261429  Biso 1.000000     C
    C   1.0     0.554801     0.971492     0.261430  Biso 1.000000     C
    C   1.0     0.295355     0.974185     0.025823  Biso 1.000000     C
    C   1.0     0.795364     0.974188     0.025819  Biso 1.000000     C
    C   1.0     0.204649     0.025814     0.974180  Biso 1.000000     C
    C   1.0     0.704651     0.025811     0.974183  Biso 1.000000     C
    N   1.0     0.332253     0.702659     0.820650  Biso 1.000000     N
    N   1.0     0.832258     0.702659     0.820650  Biso 1.000000     N
    N   1.0     0.420858     0.695055     0.793094  Biso 1.000000     N
    N   1.0     0.920863     0.695055     0.793095  Biso 1.000000     N
    N   1.0     0.377200     0.536613     0.796500  Biso 1.000000     N
    N   1.0     0.877205     0.536613     0.796499  Biso 1.000000     N
    N   1.0     0.031688     0.556644     0.759151  Biso 1.000000     N
    N   1.0     0.531693     0.556644     0.759151  Biso 1.000000     N
    N   1.0     0.169967     0.762677     0.939717  Biso 1.000000     N
    N   1.0     0.669972     0.762676     0.939718  Biso 1.000000     N
    N   1.0     0.076259     0.781326     0.942733  Biso 1.000000     N
    N   1.0     0.576264     0.781325     0.942733  Biso 1.000000     N
    N   1.0     0.130861     0.693019     0.080054  Biso 1.000000     N
    N   1.0     0.630866     0.693018     0.080054  Biso 1.000000     N
    N   1.0     0.469307     0.738781     0.058032  Biso 1.000000     N
    N   1.0     0.969312     0.738781     0.058031  Biso 1.000000     N
    N   1.0     0.167510     0.820754     0.702697  Biso 1.000000     N
    N   1.0     0.667515     0.820754     0.702697  Biso 1.000000     N
    N   1.0     0.078870     0.793173     0.694965  Biso 1.000000     N
    N   1.0     0.578875     0.793172     0.694965  Biso 1.000000     N
    N   1.0     0.122493     0.796739     0.536624  Biso 1.000000     N
    N   1.0     0.622498     0.796738     0.536624  Biso 1.000000     N
    N   1.0     0.467980     0.759258     0.556365  Biso 1.000000     N
    N   1.0     0.967985     0.759259     0.556365  Biso 1.000000     N
    N   1.0     0.329790     0.939912     0.762815  Biso 1.000000     N
    N   1.0     0.829794     0.939912     0.762815  Biso 1.000000     N
    N   1.0     0.423559     0.942717     0.781049  Biso 1.000000     N
    N   1.0     0.923563     0.942717     0.781049  Biso 1.000000     N
    N   1.0     0.368932     0.080146     0.692850  Biso 1.000000     N
    N   1.0     0.868937     0.080146     0.692850  Biso 1.000000     N
    N   1.0     0.030681     0.057513     0.737980  Biso 1.000000     N
    N   1.0     0.530687     0.057514     0.737981  Biso 1.000000     N
    N   1.0     0.167752     0.297347     0.179331  Biso 1.000000     N
    N   1.0     0.667756     0.297347     0.179331  Biso 1.000000     N
    N   1.0     0.079147     0.304951     0.206888  Biso 1.000000     N
    N   1.0     0.579152     0.304951     0.206888  Biso 1.000000     N
    N   1.0     0.122805     0.463392     0.203479  Biso 1.000000     N
    N   1.0     0.622810     0.463392     0.203479  Biso 1.000000     N
    N   1.0     0.468317     0.443366     0.240828  Biso 1.000000     N
    N   1.0     0.968322     0.443366     0.240827  Biso 1.000000     N
    N   1.0     0.330043     0.237324     0.060278  Biso 1.000000     N
    N   1.0     0.830047     0.237325     0.060278  Biso 1.000000     N
    N   1.0     0.423751     0.218675     0.057264  Biso 1.000000     N
    N   1.0     0.923755     0.218676     0.057264  Biso 1.000000     N
    N   1.0     0.369150     0.306991     0.919948  Biso 1.000000     N
    N   1.0     0.869155     0.306991     0.919948  Biso 1.000000     N
    N   1.0     0.030702     0.261229     0.941967  Biso 1.000000     N
    N   1.0     0.530708     0.261228     0.941967  Biso 1.000000     N
    N   1.0     0.332495     0.179266     0.297298  Biso 1.000000     N
    N   1.0     0.832500     0.179266     0.297298  Biso 1.000000     N
    N   1.0     0.421135     0.206847     0.305030  Biso 1.000000     N
    N   1.0     0.921140     0.206847     0.305030  Biso 1.000000     N
    N   1.0     0.377513     0.203282     0.463371  Biso 1.000000     N
    N   1.0     0.877518     0.203282     0.463371  Biso 1.000000     N
    N   1.0     0.032026     0.240762     0.443626  Biso 1.000000     N
    N   1.0     0.532031     0.240763     0.443626  Biso 1.000000     N
    N   1.0     0.170219     0.060093     0.237185  Biso 1.000000     N
    N   1.0     0.670224     0.060093     0.237186  Biso 1.000000     N
    N   1.0     0.076450     0.057287     0.218951  Biso 1.000000     N
    N   1.0     0.576456     0.057287     0.218952  Biso 1.000000     N
    N   1.0     0.131079     0.919853     0.307142  Biso 1.000000     N
    N   1.0     0.631084     0.919853     0.307142  Biso 1.000000     N
    N   1.0     0.469328     0.942489     0.262014  Biso 1.000000     N
    N   1.0     0.969333     0.942489     0.262014  Biso 1.000000     N
    O   1.0     0.226053     0.395406     0.742165  Biso 1.000000     O
    O   1.0     0.726058     0.395406     0.742165  Biso 1.000000     O
    O   1.0     0.328818     0.892871     0.982719  Biso 1.000000     O
    O   1.0     0.828830     0.892879     0.982712  Biso 1.000000     O
    O   1.0     0.273046     0.738458     0.396570  Biso 1.000000     O
    O   1.0     0.773051     0.738458     0.396570  Biso 1.000000     O
    O   1.0     0.171121     0.982685     0.892847  Biso 1.000000     O
    O   1.0     0.671118     0.982677     0.892855  Biso 1.000000     O
    O   1.0     0.273956     0.604584     0.257843  Biso 1.000000     O
    O   1.0     0.773962     0.604584     0.257843  Biso 1.000000     O
    O   1.0     0.171186     0.107127     0.017282  Biso 1.000000     O
    O   1.0     0.671185     0.107120     0.017290  Biso 1.000000     O
    O   1.0     0.226964     0.261534     0.603436  Biso 1.000000     O
    O   1.0     0.726969     0.261534     0.603436  Biso 1.000000     O
    O   1.0     0.328884     0.017313     0.107155  Biso 1.000000     O
    O   1.0     0.828896     0.017321     0.107147  Biso 1.000000     O
    O   1.0     0.086512     0.364240     0.636209  Biso 1.000000     O
    O   1.0     0.586518     0.364240     0.636209  Biso 1.000000     O
    O   1.0     0.152449     0.235732     0.760599  Biso 1.000000     O
    O   1.0     0.652454     0.235732     0.760599  Biso 1.000000     O
    O   1.0     0.433947     0.297951     0.702207  Biso 1.000000     O
    O   1.0     0.933952     0.297951     0.702207  Biso 1.000000     O
    O   1.0     0.413497     0.635751     0.363798  Biso 1.000000     O
    O   1.0     0.913502     0.635751     0.363798  Biso 1.000000     O
    O   1.0     0.347560     0.764258     0.239406  Biso 1.000000     O
    O   1.0     0.847566     0.764258     0.239406  Biso 1.000000     O
    O   1.0     0.066064     0.702041     0.297801  Biso 1.000000     O
    O   1.0     0.566069     0.702041     0.297801  Biso 1.000000     O
    S   1.0     0.172403     0.311921     0.687877  Biso 1.000000     S
    S   1.0     0.672408     0.311921     0.687877  Biso 1.000000     S
    S   1.0     0.327607     0.688069     0.312129  Biso 1.000000     S
    S   1.0     0.827612     0.688069     0.312129  Biso 1.000000     S
   Zn   1.0     0.359458     0.386369     0.790912  Biso 1.000000    Zn
   Zn   1.0     0.859463     0.386369     0.790912  Biso 1.000000    Zn
   Zn   1.0     0.140526     0.790818     0.386456  Biso 1.000000    Zn
   Zn   1.0     0.640531     0.790818     0.386456  Biso 1.000000    Zn
   Zn   1.0     0.140553     0.613630     0.209090  Biso 1.000000    Zn
   Zn   1.0     0.640558     0.613630     0.209090  Biso 1.000000    Zn
   Zn   1.0     0.359485     0.209179     0.613545  Biso 1.000000    Zn
   Zn   1.0     0.859490     0.209179     0.613545  Biso 1.000000    Zn
   Zn   1.0     0.249976     0.843235     0.843272  Biso 1.000000    Zn
   Zn   1.0     0.749981     0.843235     0.843272  Biso 1.000000    Zn
   Zn   1.0     0.250032     0.156775     0.156720  Biso 1.000000    Zn
   Zn   1.0     0.750037     0.156775     0.156720  Biso 1.000000    Zn
   Zn   1.0     0.999954     0.814113     0.814022  Biso 1.000000    Zn
   Zn   1.0     0.499949     0.814113     0.814022  Biso 1.000000    Zn
   Zn   1.0     0.000000     0.185888     0.185978  Biso 1.000000    Zn
   Zn   1.0     0.500065     0.185887     0.185978  Biso 1.000000    Zn
