#======================================================================

# CRYSTAL DATA

#----------------------------------------------------------------------

data_VESTA_phase_1


_pd_phase_name                         MOF
_cell_length_a                         13.92600
_cell_length_b                         19.59700
_cell_length_c                         19.22300
_cell_angle_alpha                      89.99600
_cell_angle_beta                       89.99800
_cell_angle_gamma                      90.01400
_symmetry_space_group_name_H-M         "P 1"
_symmetry_Int_Tables_number            1

loop_
_symmetry_equiv_pos_as_xyz
   "x, y, z"

loop_
   _atom_site_label
   _atom_site_occupancy
   _atom_site_fract_x
   _atom_site_fract_y
   _atom_site_fract_z
   _atom_site_adp_type
   _atom_site_B_iso_or_equiv
   _atom_site_type_symbol
    H   1.0     0.619628     0.029157     0.705082  Biso 1.000000     H
    H   1.0     0.619363     0.131558     0.172244  Biso 1.000000     H
    H   1.0     0.431425     0.790096     0.178759  Biso 1.000000     H
    H   1.0     0.328089     0.185740     0.000000  Biso 1.000000     H
    H   1.0     0.379327     0.386276     0.085247  Biso 1.000000     H
    H   1.0     0.424123    -0.000182     0.594323  Biso 1.000000     H
    H   1.0     0.424114     0.500157     0.094317  Biso 1.000000     H
    H   1.0     0.670117     0.657143     0.319345  Biso 1.000000     H
    H   1.0     0.671928     0.685730     0.499566  Biso 1.000000     H
    H   1.0     0.948538     0.092747     0.419913  Biso 1.000000     H
    H   1.0     0.878468     0.558646     0.073036  Biso 1.000000     H
    H   1.0     0.568549     0.290039     0.321210  Biso 1.000000     H
    H   1.0     0.348839     0.470216     0.680251  Biso 1.000000     H
    H   1.0     0.329910     0.342850     0.680653  Biso 1.000000     H
    H   1.0     0.380371     0.529364     0.794991  Biso 1.000000     H
    H   1.0     0.380687     0.631598     0.327761  Biso 1.000000     H
    H   1.0     0.348809     0.030093     0.180234  Biso 1.000000     H
    H   1.0     0.948499     0.407260     0.919916  Biso 1.000000     H
    H   1.0     0.558240     0.124156     0.725525  Biso 1.000000     H
    H   1.0     0.121558     0.441348     0.926963  Biso 1.000000     H
    H   1.0     0.671939     0.814253    -0.000216  Biso 1.000000     H
    H   1.0     0.328099     0.314265     0.500433  Biso 1.000000     H
    H   1.0     0.431479     0.709955     0.678788  Biso 1.000000     H
    H   1.0     0.343652     0.236170     0.605504  Biso 1.000000     H
    H   1.0     0.380664     0.868436     0.827754  Biso 1.000000     H
    H   1.0     0.575902     0.000000     0.405676  Biso 1.000000     H
    H   1.0     0.380395     0.970839     0.294916  Biso 1.000000     H
    H   1.0     0.441906     0.624232     0.774521  Biso 1.000000     H
    H   1.0     0.620595     0.886334     0.414720  Biso 1.000000     H
    H   1.0     0.568600     0.209899     0.821239  Biso 1.000000     H
    H   1.0     0.878452     0.941323     0.573049  Biso 1.000000     H
    H   1.0     0.651216     0.969903     0.819764  Biso 1.000000     H
    H   1.0     0.619337     0.368397     0.672237  Biso 1.000000     H
    H   1.0     0.383791     0.781259     0.924467  Biso 1.000000     H
    H   1.0     0.379431     0.113661     0.585279  Biso 1.000000     H
    H   1.0     0.616236     0.281210     0.575542  Biso 1.000000     H
    H   1.0     0.670158     0.842549     0.819266  Biso 1.000000     H
    H   1.0     0.121575     0.058672     0.426951  Biso 1.000000     H
    H   1.0     0.575913     0.499836     0.905682  Biso 1.000000     H
    H   1.0     0.051489     0.907249     0.580086  Biso 1.000000     H
    H   1.0     0.343592     0.263728     0.105353  Biso 1.000000     H
    H   1.0     0.616235     0.218735     0.075531  Biso 1.000000     H
    H   1.0     0.329869     0.157447     0.180732  Biso 1.000000     H
    H   1.0     0.051527     0.592735     0.080082  Biso 1.000000     H
    H   1.0     0.383790     0.718784     0.424456  Biso 1.000000     H
    H   1.0     0.441786     0.875838     0.274473  Biso 1.000000     H
    H   1.0     0.620697     0.613718     0.914751  Biso 1.000000     H
    H   1.0     0.651185     0.529777     0.319747  Biso 1.000000     H
    H   1.0     0.619658     0.470629     0.205008  Biso 1.000000     H
    H   1.0     0.656376     0.763824     0.394495  Biso 1.000000     H
    H   1.0     0.656438     0.736265     0.894645  Biso 1.000000     H
    H   1.0     0.558120     0.375762     0.225477  Biso 1.000000     H
    H   1.0     0.843668     0.263821     0.394495  Biso 1.000000     H
    H   1.0     0.075891     0.499801     0.594321  Biso 1.000000     H
    H   1.0     0.924144    -0.000148     0.905682  Biso 1.000000     H
    H   1.0     0.171886     0.814275     0.500434  Biso 1.000000     H
    H   1.0     0.843607     0.236239     0.894619  Biso 1.000000     H
    H   1.0     0.931495     0.790050     0.321204  Biso 1.000000     H
    H   1.0     0.621519     0.441323     0.573059  Biso 1.000000     H
    H   1.0     0.156423     0.763755     0.105379  Biso 1.000000     H
    H   1.0     0.828064     0.314238    -0.000252  Biso 1.000000     H
    H   1.0     0.170111     0.842817     0.680666  Biso 1.000000     H
    H   1.0     0.068610     0.290091     0.178754  Biso 1.000000     H
    H   1.0     0.170139     0.657456     0.180729  Biso 1.000000     H
    H   1.0     0.116220     0.218793     0.424451  Biso 1.000000     H
    H   1.0     0.880391     0.970652     0.205020  Biso 1.000000     H
    H   1.0     0.829915     0.157177     0.319332  Biso 1.000000     H
    H   1.0     0.829888     0.342539     0.819270  Biso 1.000000     H
    H   1.0     0.119350     0.368444     0.827757  Biso 1.000000     H
    H   1.0     0.120637     0.613643     0.585281  Biso 1.000000     H
    H   1.0     0.879388     0.386352     0.414718  Biso 1.000000     H
    H   1.0     0.068550     0.209942     0.678793  Biso 1.000000     H
    H   1.0     0.378507     0.558671     0.426939  Biso 1.000000     H
    H   1.0     0.551465     0.907229     0.919936  Biso 1.000000     H
    H   1.0     0.941885     0.875781     0.225472  Biso 1.000000     H
    H   1.0     0.171964     0.685756     0.000000  Biso 1.000000     H
    H   1.0     0.883807     0.781202     0.575547  Biso 1.000000     H
    H   1.0     0.551596     0.592722     0.419904  Biso 1.000000     H
    H   1.0     0.075882     0.000000     0.094317  Biso 1.000000     H
    H   1.0     0.119341     0.131609     0.327755  Biso 1.000000     H
    H   1.0     0.151176     0.970176     0.680248  Biso 1.000000     H
    H   1.0     0.058134     0.124215     0.774528  Biso 1.000000     H
    H   1.0     0.120637     0.886278     0.085255  Biso 1.000000     H
    H   1.0     0.448563     0.092766     0.080062  Biso 1.000000     H
    H   1.0     0.058227     0.375827     0.274471  Biso 1.000000     H
    H   1.0     0.119650     0.470841     0.294916  Biso 1.000000     H
    H   1.0     0.378423     0.941345     0.926970  Biso 1.000000     H
    H   1.0     0.151214     0.530094     0.180231  Biso 1.000000     H
    H   1.0     0.119637     0.029343     0.794979  Biso 1.000000     H
    H   1.0     0.883794     0.718729     0.075529  Biso 1.000000     H
    H   1.0     0.448429     0.407272     0.580095  Biso 1.000000     H
    H   1.0     0.848850     0.029819     0.319750  Biso 1.000000     H
    H   1.0     0.941801     0.624168     0.725527  Biso 1.000000     H
    H   1.0     0.880691     0.631549     0.172241  Biso 1.000000     H
    H   1.0     0.621604     0.058650     0.073028  Biso 1.000000     H
    H   1.0     0.880684     0.868385     0.672243  Biso 1.000000     H
    H   1.0     0.828140     0.185720     0.499565  Biso 1.000000     H
    H   1.0     0.931414     0.709903     0.821244  Biso 1.000000     H
    H   1.0     0.848808     0.469901     0.819768  Biso 1.000000     H
    H   1.0     0.116223     0.281266     0.924471  Biso 1.000000     H
    H   1.0     0.879391     0.113715     0.914744  Biso 1.000000     H
    H   1.0     0.156363     0.736173     0.605504  Biso 1.000000     H
    H   1.0     0.924135     0.500193     0.405678  Biso 1.000000     H
    H   1.0     0.880380     0.529154     0.705082  Biso 1.000000     H
    C   1.0     0.932466     0.966492     0.541172  Biso 1.000000     C
    C   1.0     0.932476     0.533483     0.041169  Biso 1.000000     C
    C   1.0     0.371630     0.025905     0.291393  Biso 1.000000     C
    C   1.0     0.405184     0.705774     0.247725  Biso 1.000000     C
    C   1.0     0.589211     0.196943     0.644731  Biso 1.000000     C
    C   1.0     0.630528     0.851843     0.458568  Biso 1.000000     C
    C   1.0     0.371619     0.474313     0.791418  Biso 1.000000     C
    C   1.0     0.589162     0.302994     0.144700  Biso 1.000000     C
    C   1.0     0.067561     0.033504     0.458827  Biso 1.000000     C
    C   1.0     0.422411     0.774680     0.232779  Biso 1.000000     C
    C   1.0     0.594835     0.205729     0.252264  Biso 1.000000     C
    C   1.0     0.349046     0.268557     0.927979  Biso 1.000000     C
    C   1.0     0.343944     0.129404     0.228548  Biso 1.000000     C
    C   1.0     0.659701     0.724370     0.634398  Biso 1.000000     C
    C   1.0     0.650829     0.835093     0.708320  Biso 1.000000     C
    C   1.0     0.410815     0.803051     0.355267  Biso 1.000000     C
    C   1.0     0.097294     0.981319     0.503985  Biso 1.000000     C
    C   1.0     0.649244     0.782717     0.447541  Biso 1.000000     C
    C   1.0     0.573391     0.177389     0.713834  Biso 1.000000     C
    C   1.0     0.201931     0.963155     0.507842  Biso 1.000000     C
    C   1.0     0.607015     0.314457     0.682825  Biso 1.000000     C
    C   1.0     0.592394     0.355330     0.087656  Biso 1.000000     C
    C   1.0     0.067550     0.466511     0.958830  Biso 1.000000     C
    C   1.0     0.594844     0.294220     0.752273  Biso 1.000000     C
    C   1.0     0.645456     0.940968     0.771631  Biso 1.000000     C
    C   1.0     0.336741     0.260189     0.793277  Biso 1.000000     C
    C   1.0     0.628396     0.974090     0.708605  Biso 1.000000     C
    C   1.0     0.407629     0.644664     0.912342  Biso 1.000000     C
    C   1.0     0.605192     0.266283     0.629546  Biso 1.000000     C
    C   1.0     0.336755     0.240032     0.293434  Biso 1.000000     C
    C   1.0     0.343971     0.370862     0.728489  Biso 1.000000     C
    C   1.0     0.028704     0.552113     0.045142  Biso 1.000000     C
    C   1.0     0.341830     0.259788     0.494906  Biso 1.000000     C
    C   1.0     0.349199     0.335316     0.791596  Biso 1.000000     C
    C   1.0     0.592423     0.144615     0.587687  Biso 1.000000     C
    C   1.0     0.798095     0.036839     0.492156  Biso 1.000000     C
    C   1.0     0.393013     0.685538     0.317174  Biso 1.000000     C
    C   1.0     0.394849     0.766331     0.870467  Biso 1.000000     C
    C   1.0     0.341806     0.240228     0.994734  Biso 1.000000     C
    C   1.0     0.369427     0.351824     0.041364  Biso 1.000000     C
    C   1.0     0.902731     0.481325     0.996007  Biso 1.000000     C
    C   1.0     0.028687     0.947873     0.545146  Biso 1.000000     C
    C   1.0     0.395693     0.845877     0.690205  Biso 1.000000     C
    C   1.0     0.634747     0.872492     0.646913  Biso 1.000000     C
    C   1.0     0.663299     0.739803     0.206721  Biso 1.000000     C
    C   1.0     0.604327     0.154116     0.309793  Biso 1.000000     C
    C   1.0     0.349198     0.164902     0.291679  Biso 1.000000     C
    C   1.0     0.628408     0.525680     0.208580  Biso 1.000000     C
    C   1.0     0.407598     0.855380     0.412310  Biso 1.000000     C
    C   1.0     0.645442     0.558751     0.271636  Biso 1.000000     C
    C   1.0     0.650961     0.768464     0.571875  Biso 1.000000     C
    C   1.0     0.365273     0.372659     0.853033  Biso 1.000000     C
    C   1.0     0.354569     0.059027     0.228367  Biso 1.000000     C
    C   1.0     0.658198     0.740207     0.505093  Biso 1.000000     C
    C   1.0     0.340336     0.275626     0.365601  Biso 1.000000     C
    C   1.0     0.577617     0.225314     0.767219  Biso 1.000000     C
    C   1.0     0.097295     0.518668     0.003993  Biso 1.000000     C
    C   1.0     0.971340     0.052123     0.454854  Biso 1.000000     C
    C   1.0     0.902732     0.018677     0.496015  Biso 1.000000     C
    C   1.0     0.393012     0.814502     0.817178  Biso 1.000000     C
    C   1.0     0.630600     0.648169     0.958634  Biso 1.000000     C
    C   1.0     0.649299     0.717315     0.947673  Biso 1.000000     C
    C   1.0     0.656081     0.870591     0.771450  Biso 1.000000     C
    C   1.0     0.650825     0.664677     0.208403  Biso 1.000000     C
    C   1.0     0.201937     0.536838     0.007854  Biso 1.000000     C
    C   1.0     0.798088     0.463158     0.992142  Biso 1.000000     C
    C   1.0     0.354584     0.441242     0.728363  Biso 1.000000     C
    C   1.0     0.605180     0.233663     0.129531  Biso 1.000000     C
    C   1.0     0.364968     0.339170     0.921638  Biso 1.000000     C
    C   1.0     0.350728     0.282678     0.052326  Biso 1.000000     C
    C   1.0     0.394832     0.733712     0.370452  Biso 1.000000     C
    C   1.0     0.658218     0.759765     0.005264  Biso 1.000000     C
    C   1.0     0.365279     0.127503     0.353085  Biso 1.000000     C
    C   1.0     0.650984     0.731437     0.072020  Biso 1.000000     C
    C   1.0     0.573322     0.322541     0.213799  Biso 1.000000     C
    C   1.0     0.635059     0.660823     0.078361  Biso 1.000000     C
    C   1.0     0.369499     0.148151     0.541430  Biso 1.000000     C
    C   1.0     0.607013     0.185492     0.182820  Biso 1.000000     C
    C   1.0     0.410862     0.696999     0.855298  Biso 1.000000     C
    C   1.0     0.635026     0.839067     0.578280  Biso 1.000000     C
    C   1.0     0.405194     0.794265     0.747735  Biso 1.000000     C
    C   1.0     0.971323     0.447881     0.954857  Biso 1.000000     C
    C   1.0     0.604310     0.345853     0.809784  Biso 1.000000     C
    C   1.0     0.663270     0.759963     0.706565  Biso 1.000000     C
    C   1.0     0.364997     0.160928     0.421719  Biso 1.000000     C
    C   1.0     0.349067     0.231531     0.428123  Biso 1.000000     C
    C   1.0     0.395712     0.654142     0.190215  Biso 1.000000     C
    C   1.0     0.656059     0.629131     0.271509  Biso 1.000000     C
    C   1.0     0.634754     0.627334     0.146965  Biso 1.000000     C
    C   1.0     0.659710     0.775470     0.134586  Biso 1.000000     C
    C   1.0     0.422457     0.725370     0.732805  Biso 1.000000     C
    C   1.0     0.426633     0.822606     0.286164  Biso 1.000000     C
    C   1.0     0.350782     0.217278     0.552458  Biso 1.000000     C
    C   1.0     0.577568     0.274624     0.267193  Biso 1.000000     C
    C   1.0     0.340300     0.224524     0.865414  Biso 1.000000     C
    C   1.0     0.426706     0.677453     0.786200  Biso 1.000000     C
    C   1.0     0.864991     0.160838     0.078345  Biso 1.000000     C
    C   1.0     0.871617     0.474099     0.708606  Biso 1.000000     C
    C   1.0     0.150971     0.768550     0.928004  Biso 1.000000     C
    C   1.0     0.402709     0.481334     0.503979  Biso 1.000000     C
    C   1.0     0.134734     0.872635     0.853043  Biso 1.000000     C
    C   1.0     0.528751     0.552100     0.454842  Biso 1.000000     C
    C   1.0     0.840348     0.224366     0.634399  Biso 1.000000     C
    C   1.0     0.073347     0.177440     0.786203  Biso 1.000000     C
    C   1.0     0.128408     0.525896     0.291393  Biso 1.000000     C
    C   1.0     0.105195     0.266333     0.870469  Biso 1.000000     C
    C   1.0     0.894831     0.766275     0.629552  Biso 1.000000     C
    C   1.0     0.130554     0.648139     0.541432  Biso 1.000000     C
    C   1.0     0.836751     0.239828     0.206695  Biso 1.000000     C
    C   1.0     0.298099     0.036866     0.007849  Biso 1.000000     C
    C   1.0     0.150956     0.731530     0.428123  Biso 1.000000     C
    C   1.0     0.850787     0.282717     0.447541  Biso 1.000000     C
    C   1.0     0.854598     0.058789     0.271635  Biso 1.000000     C
    C   1.0     0.432492     0.533505     0.458825  Biso 1.000000     C
    C   1.0     0.907604     0.644612     0.587692  Biso 1.000000     C
    C   1.0     0.432449     0.966496     0.958845  Biso 1.000000     C
    C   1.0     0.135047     0.660919     0.421719  Biso 1.000000     C
    C   1.0     0.895711     0.845847     0.809788  Biso 1.000000     C
    C   1.0     0.094826     0.294262     0.747739  Biso 1.000000     C
    C   1.0     0.843978     0.129164     0.271499  Biso 1.000000     C
    C   1.0     0.130553     0.851826     0.041376  Biso 1.000000     C
    C   1.0     0.159672     0.775629     0.365600  Biso 1.000000     C
    C   1.0     0.567578     0.033498     0.041154  Biso 1.000000     C
    C   1.0     0.922420     0.725319     0.767223  Biso 1.000000     C
    C   1.0     0.149240     0.717276     0.552458  Biso 1.000000     C
    C   1.0     0.073395     0.322601     0.286160  Biso 1.000000     C
    C   1.0     0.926714     0.822550     0.213793  Biso 1.000000     C
    C   1.0     0.836754     0.259959     0.706565  Biso 1.000000     C
    C   1.0     0.907622     0.855332     0.087655  Biso 1.000000     C
    C   1.0     0.128391     0.974280     0.791415  Biso 1.000000     C
    C   1.0     0.135035     0.839156     0.921653  Biso 1.000000     C
    C   1.0     0.893026     0.814451     0.682829  Biso 1.000000     C
    C   1.0     0.163278     0.740036     0.293435  Biso 1.000000     C
    C   1.0     0.089192     0.303051     0.355264  Biso 1.000000     C
    C   1.0     0.150813     0.835289     0.791611  Biso 1.000000     C
    C   1.0     0.849193     0.335094     0.708321  Biso 1.000000     C
    C   1.0     0.402730     0.018695     0.003980  Biso 1.000000     C
    C   1.0     0.926630     0.677393     0.713839  Biso 1.000000     C
    C   1.0     0.106980     0.314508     0.817183  Biso 1.000000     C
    C   1.0     0.145458     0.559025     0.228365  Biso 1.000000     C
    C   1.0     0.895712     0.654115     0.309790  Biso 1.000000     C
    C   1.0     0.163277     0.760167     0.793303  Biso 1.000000     C
    C   1.0     0.089154     0.196997     0.855303  Biso 1.000000     C
    C   1.0     0.869475     0.148168     0.958622  Biso 1.000000     C
    C   1.0     0.701930     0.963138     0.992140  Biso 1.000000     C
    C   1.0     0.298054     0.463193     0.507850  Biso 1.000000     C
    C   1.0     0.145429     0.941205     0.728364  Biso 1.000000     C
    C   1.0     0.865275     0.372498     0.646914  Biso 1.000000     C
    C   1.0     0.134753     0.627497     0.353085  Biso 1.000000     C
    C   1.0     0.910854     0.802998     0.144698  Biso 1.000000     C
    C   1.0     0.854570     0.440970     0.771634  Biso 1.000000     C
    C   1.0     0.158226     0.740237     0.994764  Biso 1.000000     C
    C   1.0     0.107001     0.185543     0.317169  Biso 1.000000     C
    C   1.0     0.471344     0.052124     0.045141  Biso 1.000000     C
    C   1.0     0.850753     0.217303     0.947649  Biso 1.000000     C
    C   1.0     0.841847     0.240204     0.505094  Biso 1.000000     C
    C   1.0     0.869471     0.351855     0.458567  Biso 1.000000     C
    C   1.0     0.104290     0.345882     0.690209  Biso 1.000000     C
    C   1.0     0.156049     0.870830     0.728500  Biso 1.000000     C
    C   1.0     0.843955     0.370589     0.771453  Biso 1.000000     C
    C   1.0     0.156073     0.629407     0.228546  Biso 1.000000     C
    C   1.0     0.158177     0.759791     0.494906  Biso 1.000000     C
    C   1.0     0.092412     0.144661     0.912342  Biso 1.000000     C
    C   1.0     0.528682     0.947870     0.954858  Biso 1.000000     C
    C   1.0     0.922459     0.774633     0.267188  Biso 1.000000     C
    C   1.0     0.849076     0.268464     0.571876  Biso 1.000000     C
    C   1.0     0.894866     0.733658     0.129526  Biso 1.000000     C
    C   1.0     0.905179     0.794217     0.752278  Biso 1.000000     C
    C   1.0     0.597295     0.981295     0.996023  Biso 1.000000     C
    C   1.0     0.871636     0.025715     0.208584  Biso 1.000000     C
    C   1.0     0.077608     0.274676     0.232775  Biso 1.000000     C
    C   1.0     0.910836     0.696943     0.644734  Biso 1.000000     C
    C   1.0     0.864978     0.339076     0.578279  Biso 1.000000     C
    C   1.0     0.701971     0.536804     0.492150  Biso 1.000000     C
    C   1.0     0.105193     0.233719     0.370447  Biso 1.000000     C
    C   1.0     0.849056     0.231444     0.071994  Biso 1.000000     C
    C   1.0     0.840317     0.275483     0.134553  Biso 1.000000     C
    C   1.0     0.905218     0.705729     0.252259  Biso 1.000000     C
    C   1.0     0.865291     0.127359     0.146955  Biso 1.000000     C
    C   1.0     0.849214     0.164705     0.208388  Biso 1.000000     C
    C   1.0     0.159706     0.724510     0.865445  Biso 1.000000     C
    C   1.0     0.092417     0.355382     0.412307  Biso 1.000000     C
    C   1.0     0.150830     0.664902     0.291678  Biso 1.000000     C
    C   1.0     0.471274     0.447893     0.545156  Biso 1.000000     C
    C   1.0     0.104317     0.154147     0.190211  Biso 1.000000     C
    C   1.0     0.841801     0.259757     0.005234  Biso 1.000000     C
    C   1.0     0.094846     0.205778     0.247721  Biso 1.000000     C
    C   1.0     0.597317     0.518658     0.496019  Biso 1.000000     C
    C   1.0     0.893021     0.685489     0.182817  Biso 1.000000     C
    C   1.0     0.077544     0.225364     0.732811  Biso 1.000000     C
    C   1.0     0.149275     0.782691     0.052349  Biso 1.000000     C
    C   1.0     0.567533     0.466489     0.541173  Biso 1.000000     C
    N   1.0     0.376918     0.379702     0.977760  Biso 1.000000     N
    N   1.0     0.376965     0.120345     0.477803  Biso 1.000000     N
    N   1.0     0.623060     0.879649     0.522195  Biso 1.000000     N
    N   1.0     0.622989     0.559060     0.147666  Biso 1.000000     N
    N   1.0     0.377053     0.059232     0.352333  Biso 1.000000     N
    N   1.0     0.622971     0.940763     0.647665  Biso 1.000000     N
    N   1.0     0.623110     0.620292     0.022238  Biso 1.000000     N
    N   1.0     0.377037     0.440934     0.852332  Biso 1.000000     N
    N   1.0     0.123092     0.620331     0.477805  Biso 1.000000     N
    N   1.0     0.876935     0.379664     0.522194  Biso 1.000000     N
    N   1.0     0.877040     0.440774     0.647665  Biso 1.000000     N
    N   1.0     0.122969     0.940906     0.852334  Biso 1.000000     N
    N   1.0     0.123072     0.879691     0.977769  Biso 1.000000     N
    N   1.0     0.877058     0.059088     0.147665  Biso 1.000000     N
    N   1.0     0.876955     0.120303     0.022230  Biso 1.000000     N
    N   1.0     0.122989     0.559220     0.352334  Biso 1.000000     N
    O   1.0     0.675543     0.773924     0.259299  Biso 1.000000     O
    O   1.0     0.612983     0.407896     0.796799  Biso 1.000000     O
    O   1.0     0.395262     0.680366     0.127718  Biso 1.000000     O
    O   1.0     0.429212     0.583197     0.897881  Biso 1.000000     O
    O   1.0     0.387045     0.592098     0.203199  Biso 1.000000     O
    O   1.0     0.604766     0.319628     0.872280  Biso 1.000000     O
    O   1.0     0.336940     0.162292     0.868920  Biso 1.000000     O
    O   1.0     0.395245     0.819639     0.627718  Biso 1.000000     O
    O   1.0     0.663038     0.662140     0.630855  Biso 1.000000     O
    O   1.0     0.226866     0.917872     0.552948  Biso 1.000000     O
    O   1.0     0.675463     0.725765     0.759099  Biso 1.000000     O
    O   1.0     0.570865     0.083138     0.602158  Biso 1.000000     O
    O   1.0     0.442859     0.974574     0.552724  Biso 1.000000     O
    O   1.0     0.557163     0.474576     0.947265  Biso 1.000000     O
    O   1.0     0.324547     0.274230     0.240901  Biso 1.000000     O
    O   1.0     0.742225     0.494304     0.033139  Biso 1.000000     O
    O   1.0     0.387040     0.907923     0.703166  Biso 1.000000     O
    O   1.0     0.773136     0.417880     0.947034  Biso 1.000000     O
    O   1.0     0.383263     0.666945     0.972280  Biso 1.000000     O
    O   1.0     0.226891     0.582113     0.052965  Biso 1.000000     O
    O   1.0     0.257800    -0.005669     0.466842  Biso 1.000000     O
    O   1.0     0.570815     0.416797     0.102118  Biso 1.000000     O
    O   1.0     0.383247     0.833078     0.472252  Biso 1.000000     O
    O   1.0     0.773161     0.082123     0.447051  Biso 1.000000     O
    O   1.0     0.616765     0.333049     0.027719  Biso 1.000000     O
    O   1.0     0.337005     0.337856     0.369144  Biso 1.000000     O
    O   1.0     0.663059     0.837702     0.131079  Biso 1.000000     O
    O   1.0     0.257802     0.505689     0.966860  Biso 1.000000     O
    O   1.0     0.742226     0.000000     0.533156  Biso 1.000000     O
    O   1.0     0.612988     0.092071     0.296831  Biso 1.000000     O
    O   1.0     0.604781     0.180355     0.372281  Biso 1.000000     O
    O   1.0     0.557167     0.025420     0.447275  Biso 1.000000     O
    O   1.0     0.616781     0.166915     0.527746  Biso 1.000000     O
    O   1.0     0.442863     0.525418     0.052733  Biso 1.000000     O
    O   1.0     0.324508     0.226067     0.740698  Biso 1.000000     O
    O   1.0     0.429163     0.916856     0.397841  Biso 1.000000     O
    O   1.0     0.824519     0.273956     0.259267  Biso 1.000000     O
    O   1.0     0.757796    -0.005702     0.033137  Biso 1.000000     O
    O   1.0     0.116755     0.333086     0.472249  Biso 1.000000     O
    O   1.0     0.116769     0.166951     0.972281  Biso 1.000000     O
    O   1.0     0.895285     0.680354     0.372277  Biso 1.000000     O
    O   1.0     0.162984     0.837862     0.369144  Biso 1.000000     O
    O   1.0     0.104774     0.180369     0.127713  Biso 1.000000     O
    O   1.0     0.929195     0.916807     0.102118  Biso 1.000000     O
    O   1.0     0.175511     0.726039     0.740731  Biso 1.000000     O
    O   1.0     0.887064     0.592066     0.296829  Biso 1.000000     O
    O   1.0     0.929189     0.583145     0.602156  Biso 1.000000     O
    O   1.0     0.070840     0.416849     0.397842  Biso 1.000000     O
    O   1.0     0.887043     0.907888     0.796803  Biso 1.000000     O
    O   1.0     0.824530     0.225758     0.759096  Biso 1.000000     O
    O   1.0     0.942864     0.974576     0.947266  Biso 1.000000     O
    O   1.0     0.070824     0.083188     0.897882  Biso 1.000000     O
    O   1.0     0.175500     0.774237     0.240903  Biso 1.000000     O
    O   1.0     0.757809     0.505661     0.533169  Biso 1.000000     O
    O   1.0     0.273081     0.417923     0.552968  Biso 1.000000     O
    O   1.0     0.242230     0.000000     0.966865  Biso 1.000000     O
    O   1.0     0.726945     0.582071     0.447030  Biso 1.000000     O
    O   1.0     0.836964     0.337714     0.131038  Biso 1.000000     O
    O   1.0     0.837036     0.162133     0.630856  Biso 1.000000     O
    O   1.0     0.104754     0.319639     0.627723  Biso 1.000000     O
    O   1.0     0.942892     0.525423     0.447274  Biso 1.000000     O
    O   1.0     0.242216     0.494331     0.466828  Biso 1.000000     O
    O   1.0     0.273179     0.082165     0.052938  Biso 1.000000     O
    O   1.0     0.057134     0.474570     0.552725  Biso 1.000000     O
    O   1.0     0.112975     0.407928     0.703168  Biso 1.000000     O
    O   1.0     0.112982     0.092106     0.203195  Biso 1.000000     O
    O   1.0     0.895252     0.819625     0.872286  Biso 1.000000     O
    O   1.0     0.883274     0.666909     0.527748  Biso 1.000000     O
    O   1.0     0.726847     0.917825     0.947065  Biso 1.000000     O
    O   1.0     0.057163     0.025417     0.052732  Biso 1.000000     O
    O   1.0     0.883250     0.833044     0.027719  Biso 1.000000     O
    O   1.0     0.163056     0.662280     0.868960  Biso 1.000000     O
   Zn   1.0     0.404024     0.488499     0.952357  Biso 1.000000    Zn
   Zn   1.0     0.596002     0.988449     0.547659  Biso 1.000000    Zn
   Zn   1.0     0.366220     0.611295     0.057887  Biso 1.000000    Zn
   Zn   1.0     0.633829     0.111307     0.442135  Biso 1.000000    Zn
   Zn   1.0     0.366197     0.888687     0.557864  Biso 1.000000    Zn
   Zn   1.0     0.596002     0.511495     0.047641  Biso 1.000000    Zn
   Zn   1.0     0.633806     0.388699     0.942111  Biso 1.000000    Zn
   Zn   1.0     0.404024     0.011545     0.452339  Biso 1.000000    Zn
   Zn   1.0     0.866243     0.611297     0.442133  Biso 1.000000    Zn
   Zn   1.0     0.904026     0.011509     0.047643  Biso 1.000000    Zn
   Zn   1.0     0.095998     0.511532     0.452340  Biso 1.000000    Zn
   Zn   1.0     0.133784     0.388696     0.557866  Biso 1.000000    Zn
   Zn   1.0     0.096000     0.988485     0.952355  Biso 1.000000    Zn
   Zn   1.0     0.904027     0.488463     0.547659  Biso 1.000000    Zn
   Zn   1.0     0.866203     0.888689     0.942115  Biso 1.000000    Zn
   Zn   1.0     0.133823     0.111305     0.057883  Biso 1.000000    Zn
