#======================================================================

# CRYSTAL DATA

#----------------------------------------------------------------------

data_VESTA_phase_1


_pd_phase_name                         MOF
_cell_length_a                         16.10400
_cell_length_b                         16.09700
_cell_length_c                         16.09800
_cell_angle_alpha                      90.00000
_cell_angle_beta                       90.00000
_cell_angle_gamma                      90.00000
_symmetry_space_group_name_H-M         "P 1"
_symmetry_Int_Tables_number            1

loop_
_symmetry_equiv_pos_as_xyz
   "x, y, z"

loop_
   _atom_site_label
   _atom_site_occupancy
   _atom_site_fract_x
   _atom_site_fract_y
   _atom_site_fract_z
   _atom_site_adp_type
   _atom_site_B_iso_or_equiv
   _atom_site_type_symbol
    H   1.0     0.744358     0.848224     0.597047  Biso 1.000000     H
    H   1.0     0.627447     0.848713     0.722911  Biso 1.000000     H
    H   1.0     0.548780     0.114804     0.627141  Biso 1.000000     H
    H   1.0     0.642886     0.142063     0.574583  Biso 1.000000     H
    H   1.0     0.564096     0.088122     0.520872  Biso 1.000000     H
    H   1.0     0.255656     0.151804     0.597047  Biso 1.000000     H
    H   1.0     0.372567     0.151321     0.722910  Biso 1.000000     H
    H   1.0     0.451238     0.885228     0.627142  Biso 1.000000     H
    H   1.0     0.357133     0.857967     0.574584  Biso 1.000000     H
    H   1.0     0.435921     0.911912     0.520875  Biso 1.000000     H
    H   1.0     0.255645     0.848234     0.402945  Biso 1.000000     H
    H   1.0     0.372550     0.848719     0.277076  Biso 1.000000     H
    H   1.0     0.451245     0.114802     0.372857  Biso 1.000000     H
    H   1.0     0.357143     0.142063     0.425418  Biso 1.000000     H
    H   1.0     0.435931     0.088118     0.479125  Biso 1.000000     H
    H   1.0     0.744366     0.151797     0.402946  Biso 1.000000     H
    H   1.0     0.627456     0.151312     0.277081  Biso 1.000000     H
    H   1.0     0.548767     0.885226     0.372857  Biso 1.000000     H
    H   1.0     0.642873     0.857963     0.425413  Biso 1.000000     H
    H   1.0     0.564086     0.911908     0.479126  Biso 1.000000     H
    H   1.0     0.596916     0.744281     0.848132  Biso 1.000000     H
    H   1.0     0.722832     0.627420     0.848650  Biso 1.000000     H
    H   1.0     0.627248     0.548773     0.114830  Biso 1.000000     H
    H   1.0     0.574676     0.642907     0.142074  Biso 1.000000     H
    H   1.0     0.521000     0.564036     0.088181  Biso 1.000000     H
    H   1.0     0.596916     0.255753     0.151863  Biso 1.000000     H
    H   1.0     0.722834     0.372611     0.151342  Biso 1.000000     H
    H   1.0     0.627242     0.451263     0.885169  Biso 1.000000     H
    H   1.0     0.574679     0.357129     0.857920  Biso 1.000000     H
    H   1.0     0.520994     0.435992     0.911812  Biso 1.000000     H
    H   1.0     0.403104     0.255759     0.848129  Biso 1.000000     H
    H   1.0     0.277189     0.372620     0.848648  Biso 1.000000     H
    H   1.0     0.372776     0.451252     0.114828  Biso 1.000000     H
    H   1.0     0.425348     0.357119     0.142070  Biso 1.000000     H
    H   1.0     0.479023     0.435988     0.088176  Biso 1.000000     H
    H   1.0     0.403104     0.744269     0.151866  Biso 1.000000     H
    H   1.0     0.277185     0.627412     0.151343  Biso 1.000000     H
    H   1.0     0.372782     0.548774     0.885171  Biso 1.000000     H
    H   1.0     0.425345     0.642909     0.857922  Biso 1.000000     H
    H   1.0     0.479029     0.564047     0.911816  Biso 1.000000     H
    H   1.0     0.848222     0.596981     0.744311  Biso 1.000000     H
    H   1.0     0.848712     0.722896     0.627401  Biso 1.000000     H
    H   1.0     0.114757     0.627241     0.548769  Biso 1.000000     H
    H   1.0     0.142008     0.574677     0.642905  Biso 1.000000     H
    H   1.0     0.088116     0.520959     0.564072  Biso 1.000000     H
    H   1.0     0.151803     0.596976     0.255687  Biso 1.000000     H
    H   1.0     0.151313     0.722886     0.372603  Biso 1.000000     H
    H   1.0     0.885261     0.627245     0.451221  Biso 1.000000     H
    H   1.0     0.858011     0.574679     0.357085  Biso 1.000000     H
    H   1.0     0.911899     0.520961     0.435922  Biso 1.000000     H
    H   1.0     0.848222     0.403054     0.255689  Biso 1.000000     H
    H   1.0     0.848708     0.277144     0.372604  Biso 1.000000     H
    H   1.0     0.114760     0.372789     0.451225  Biso 1.000000     H
    H   1.0     0.142010     0.425350     0.357088  Biso 1.000000     H
    H   1.0     0.088123     0.479071     0.435922  Biso 1.000000     H
    H   1.0     0.151794     0.403046     0.744311  Biso 1.000000     H
    H   1.0     0.151300     0.277128     0.627405  Biso 1.000000     H
    H   1.0     0.885257     0.372790     0.548773  Biso 1.000000     H
    H   1.0     0.858010     0.425356     0.642908  Biso 1.000000     H
    H   1.0     0.911899     0.479071     0.564072  Biso 1.000000     H
    H   1.0     0.348203     0.244306     0.096947  Biso 1.000000     H
    H   1.0     0.348695     0.127390     0.222856  Biso 1.000000     H
    H   1.0     0.614773     0.048779     0.127236  Biso 1.000000     H
    H   1.0     0.642020     0.142921     0.074671  Biso 1.000000     H
    H   1.0     0.588138     0.064074     0.020956  Biso 1.000000     H
    H   1.0     0.651815     0.755720     0.096953  Biso 1.000000     H
    H   1.0     0.651319     0.872632     0.222865  Biso 1.000000     H
    H   1.0     0.385243     0.951244     0.127237  Biso 1.000000     H
    H   1.0     0.357999     0.857102     0.074672  Biso 1.000000     H
    H   1.0     0.411880     0.935949     0.020958  Biso 1.000000     H
    H   1.0     0.348209     0.755719     0.903046  Biso 1.000000     H
    H   1.0     0.348701     0.872627     0.777129  Biso 1.000000     H
    H   1.0     0.614769     0.951260     0.872764  Biso 1.000000     H
    H   1.0     0.642019     0.857119     0.925329  Biso 1.000000     H
    H   1.0     0.588131     0.935963     0.979042  Biso 1.000000     H
    H   1.0     0.651810     0.244317     0.903041  Biso 1.000000     H
    H   1.0     0.651316     0.127408     0.777125  Biso 1.000000     H
    H   1.0     0.385247     0.048779     0.872764  Biso 1.000000     H
    H   1.0     0.358001     0.142921     0.925329  Biso 1.000000     H
    H   1.0     0.411887     0.064076     0.979041  Biso 1.000000     H
    H   1.0     0.244356     0.097054     0.348204  Biso 1.000000     H
    H   1.0     0.127443     0.222926     0.348690  Biso 1.000000     H
    H   1.0     0.048769     0.127161     0.614793  Biso 1.000000     H
    H   1.0     0.142877     0.074598     0.642049  Biso 1.000000     H
    H   1.0     0.064080     0.020879     0.588118  Biso 1.000000     H
    H   1.0     0.755664     0.097051     0.651789  Biso 1.000000     H
    H   1.0     0.872571     0.222928     0.651300  Biso 1.000000     H
    H   1.0     0.951253     0.127154     0.385205  Biso 1.000000     H
    H   1.0     0.857146     0.074597     0.357943  Biso 1.000000     H
    H   1.0     0.935936     0.020873     0.411877  Biso 1.000000     H
    H   1.0     0.755656     0.902974     0.348202  Biso 1.000000     H
    H   1.0     0.872568     0.777101     0.348687  Biso 1.000000     H
    H   1.0     0.951245     0.872866     0.614789  Biso 1.000000     H
    H   1.0     0.857139     0.925431     0.642047  Biso 1.000000     H
    H   1.0     0.935935     0.979147     0.588112  Biso 1.000000     H
    H   1.0     0.244351     0.902981     0.651796  Biso 1.000000     H
    H   1.0     0.127437     0.777108     0.651306  Biso 1.000000     H
    H   1.0     0.048762     0.872872     0.385209  Biso 1.000000     H
    H   1.0     0.142872     0.925428     0.357944  Biso 1.000000     H
    H   1.0     0.064080     0.979156     0.411876  Biso 1.000000     H
    H   1.0     0.096917     0.348148     0.244257  Biso 1.000000     H
    H   1.0     0.222835     0.348668     0.127405  Biso 1.000000     H
    H   1.0     0.127231     0.614844     0.048752  Biso 1.000000     H
    H   1.0     0.074665     0.642095     0.142883  Biso 1.000000     H
    H   1.0     0.020983     0.588193     0.064025  Biso 1.000000     H
    H   1.0     0.096913     0.651886     0.755735  Biso 1.000000     H
    H   1.0     0.222832     0.651366     0.872586  Biso 1.000000     H
    H   1.0     0.127235     0.385190     0.951240  Biso 1.000000     H
    H   1.0     0.074666     0.357939     0.857112  Biso 1.000000     H
    H   1.0     0.020985     0.411838     0.935973  Biso 1.000000     H
    H   1.0     0.903108     0.348147     0.755742  Biso 1.000000     H
    H   1.0     0.777191     0.348668     0.872596  Biso 1.000000     H
    H   1.0     0.872789     0.614848     0.951240  Biso 1.000000     H
    H   1.0     0.925357     0.642096     0.857110  Biso 1.000000     H
    H   1.0     0.979038     0.588198     0.935972  Biso 1.000000     H
    H   1.0     0.903103     0.651881     0.244256  Biso 1.000000     H
    H   1.0     0.777183     0.651356     0.127405  Biso 1.000000     H
    H   1.0     0.872793     0.385182     0.048755  Biso 1.000000     H
    H   1.0     0.925358     0.357934     0.142885  Biso 1.000000     H
    H   1.0     0.979040     0.411833     0.064025  Biso 1.000000     H
    B   1.0     0.750014    -0.000002     0.499996  Biso 1.000000     B
    B   1.0     0.250002     0.000004     0.499999  Biso 1.000000     B
    B   1.0     0.500012     0.749986     0.000003  Biso 1.000000     B
    B   1.0     0.500008     0.250037    -0.000000  Biso 1.000000     B
    B   1.0     0.000001     0.500016     0.750034  Biso 1.000000     B
    B   1.0     0.000004     0.500016     0.249962  Biso 1.000000     B
    C   1.0     0.700033     0.895255     0.615327  Biso 1.000000     C
    C   1.0     0.641480     0.895888     0.676943  Biso 1.000000     C
    C   1.0     0.628991     0.013008     0.609885  Biso 1.000000     C
    C   1.0     0.594916     0.094110     0.581505  Biso 1.000000     C
    C   1.0     0.299980     0.104773     0.615329  Biso 1.000000     C
    C   1.0     0.358540     0.104147     0.676938  Biso 1.000000     C
    C   1.0     0.371012     0.987017     0.609896  Biso 1.000000     C
    C   1.0     0.405100     0.905923     0.581508  Biso 1.000000     C
    C   1.0     0.299974     0.895262     0.384668  Biso 1.000000     C
    C   1.0     0.358519     0.895895     0.323044  Biso 1.000000     C
    C   1.0     0.371032     0.013006     0.390114  Biso 1.000000     C
    C   1.0     0.405109     0.094107     0.418493  Biso 1.000000     C
    C   1.0     0.700038     0.104769     0.384667  Biso 1.000000     C
    C   1.0     0.641488     0.104136     0.323049  Biso 1.000000     C
    C   1.0     0.628982     0.987019     0.390113  Biso 1.000000     C
    C   1.0     0.594905     0.905918     0.418493  Biso 1.000000     C
    C   1.0     0.615251     0.699986     0.895183  Biso 1.000000     C
    C   1.0     0.676897     0.641463     0.895836  Biso 1.000000     C
    C   1.0     0.609917     0.628967     0.013015  Biso 1.000000     C
    C   1.0     0.581598     0.594900     0.094139  Biso 1.000000     C
    C   1.0     0.615248     0.300049     0.104812  Biso 1.000000     C
    C   1.0     0.676900     0.358564     0.104155  Biso 1.000000     C
    C   1.0     0.609908     0.371072     0.986986  Biso 1.000000     C
    C   1.0     0.581595     0.405133     0.905858  Biso 1.000000     C
    C   1.0     0.384769     0.300053     0.895180  Biso 1.000000     C
    C   1.0     0.323126     0.358579     0.895832  Biso 1.000000     C
    C   1.0     0.390101     0.371054     0.013014  Biso 1.000000     C
    C   1.0     0.418424     0.405124     0.094136  Biso 1.000000     C
    C   1.0     0.384771     0.699974     0.104814  Biso 1.000000     C
    C   1.0     0.323121     0.641456     0.104158  Biso 1.000000     C
    C   1.0     0.390110     0.628970     0.986985  Biso 1.000000     C
    C   1.0     0.418428     0.594905     0.905860  Biso 1.000000     C
    C   1.0     0.895249     0.615302     0.700003  Biso 1.000000     C
    C   1.0     0.895880     0.676941     0.641448  Biso 1.000000     C
    C   1.0     0.013000     0.609948     0.628999  Biso 1.000000     C
    C   1.0     0.094078     0.581593     0.594916  Biso 1.000000     C
    C   1.0     0.104774     0.615298     0.299994  Biso 1.000000     C
    C   1.0     0.104142     0.676936     0.358549  Biso 1.000000     C
    C   1.0     0.987021     0.609945     0.371000  Biso 1.000000     C
    C   1.0     0.905939     0.581594     0.405077  Biso 1.000000     C
    C   1.0     0.895248     0.384733     0.299997  Biso 1.000000     C
    C   1.0     0.895881     0.323091     0.358548  Biso 1.000000     C
    C   1.0     0.012995     0.390092     0.371005  Biso 1.000000     C
    C   1.0     0.094080     0.418437     0.405079  Biso 1.000000     C
    C   1.0     0.104766     0.384727     0.700002  Biso 1.000000     C
    C   1.0     0.104131     0.323081     0.641456  Biso 1.000000     C
    C   1.0     0.987022     0.390089     0.628993  Biso 1.000000     C
    C   1.0     0.905939     0.418439     0.594917  Biso 1.000000     C
    C   1.0     0.395234     0.200002     0.115273  Biso 1.000000     C
    C   1.0     0.395867     0.141446     0.176911  Biso 1.000000     C
    C   1.0     0.513008     0.128998     0.109928  Biso 1.000000     C
    C   1.0     0.594094     0.094923     0.081585  Biso 1.000000     C
    C   1.0     0.604784     0.800024     0.115278  Biso 1.000000     C
    C   1.0     0.604148     0.858576     0.176919  Biso 1.000000     C
    C   1.0     0.487010     0.871026     0.109930  Biso 1.000000     C
    C   1.0     0.405924     0.905100     0.081587  Biso 1.000000     C
    C   1.0     0.395237     0.800026     0.884720  Biso 1.000000     C
    C   1.0     0.395873     0.858575     0.823076  Biso 1.000000     C
    C   1.0     0.513007     0.871036     0.890071  Biso 1.000000     C
    C   1.0     0.594091     0.905115     0.918414  Biso 1.000000     C
    C   1.0     0.604782     0.200010     0.884717  Biso 1.000000     C
    C   1.0     0.604144     0.141463     0.823071  Biso 1.000000     C
    C   1.0     0.487014     0.129000     0.890071  Biso 1.000000     C
    C   1.0     0.405928     0.094924     0.918413  Biso 1.000000     C
    C   1.0     0.200028     0.115336     0.395229  Biso 1.000000     C
    C   1.0     0.141484     0.176965     0.395869  Biso 1.000000     C
    C   1.0     0.128965     0.109883     0.512997  Biso 1.000000     C
    C   1.0     0.094901     0.081516     0.594103  Biso 1.000000     C
    C   1.0     0.799991     0.115332     0.604763  Biso 1.000000     C
    C   1.0     0.858533     0.176963     0.604123  Biso 1.000000     C
    C   1.0     0.871051     0.109881     0.486997  Biso 1.000000     C
    C   1.0     0.905118     0.081512     0.405893  Biso 1.000000     C
    C   1.0     0.799983     0.884691     0.395228  Biso 1.000000     C
    C   1.0     0.858532     0.823067     0.395863  Biso 1.000000     C
    C   1.0     0.871039     0.890136     0.512999  Biso 1.000000     C
    C   1.0     0.905112     0.918511     0.594099  Biso 1.000000     C
    C   1.0     0.200024     0.884698     0.604769  Biso 1.000000     C
    C   1.0     0.141478     0.823072     0.604129  Biso 1.000000     C
    C   1.0     0.128963     0.890148     0.486998  Biso 1.000000     C
    C   1.0     0.094897     0.918517     0.405892  Biso 1.000000     C
    C   1.0     0.115250     0.395201     0.199962  Biso 1.000000     C
    C   1.0     0.176893     0.395853     0.141441  Biso 1.000000     C
    C   1.0     0.109909     0.513031     0.128953  Biso 1.000000     C
    C   1.0     0.081584     0.594155     0.094881  Biso 1.000000     C
    C   1.0     0.115245     0.604834     0.800031  Biso 1.000000     C
    C   1.0     0.176896     0.604177     0.858543  Biso 1.000000     C
    C   1.0     0.109899     0.487009     0.871053  Biso 1.000000     C
    C   1.0     0.081584     0.405877     0.905115  Biso 1.000000     C
    C   1.0     0.884775     0.395200     0.800037  Biso 1.000000     C
    C   1.0     0.823128     0.395856     0.858554  Biso 1.000000     C
    C   1.0     0.890120     0.513028     0.871050  Biso 1.000000     C
    C   1.0     0.918438     0.594158     0.905114  Biso 1.000000     C
    C   1.0     0.884773     0.604827     0.199960  Biso 1.000000     C
    C   1.0     0.823122     0.604170     0.141447  Biso 1.000000     C
    C   1.0     0.890121     0.487004     0.128944  Biso 1.000000     C
    C   1.0     0.918440     0.405873     0.094882  Biso 1.000000     C
    N   1.0     0.597336     0.969642     0.673743  Biso 1.000000     N
    N   1.0     0.693298     0.970053     0.572721  Biso 1.000000     N
    N   1.0     0.402680     0.030391     0.673743  Biso 1.000000     N
    N   1.0     0.306724     0.029982     0.572712  Biso 1.000000     N
    N   1.0     0.402674     0.969642     0.326251  Biso 1.000000     N
    N   1.0     0.306708     0.970060     0.427274  Biso 1.000000     N
    N   1.0     0.597337     0.030386     0.326254  Biso 1.000000     N
    N   1.0     0.693303     0.029970     0.427272  Biso 1.000000     N
    N   1.0     0.673765     0.597343     0.969614  Biso 1.000000     N
    N   1.0     0.572712     0.693269     0.970007  Biso 1.000000     N
    N   1.0     0.673764     0.402689     0.030381  Biso 1.000000     N
    N   1.0     0.572713     0.306757     0.029984  Biso 1.000000     N
    N   1.0     0.326257     0.402697     0.969612  Biso 1.000000     N
    N   1.0     0.427313     0.306774     0.970001  Biso 1.000000     N
    N   1.0     0.326257     0.597334     0.030381  Biso 1.000000     N
    N   1.0     0.427311     0.693262     0.029990  Biso 1.000000     N
    N   1.0     0.969626     0.673792     0.597326  Biso 1.000000     N
    N   1.0     0.970035     0.572725     0.693289  Biso 1.000000     N
    N   1.0     0.030395     0.673790     0.402670  Biso 1.000000     N
    N   1.0     0.029983     0.572730     0.306704  Biso 1.000000     N
    N   1.0     0.969626     0.326242     0.402672  Biso 1.000000     N
    N   1.0     0.970042     0.427299     0.306699  Biso 1.000000     N
    N   1.0     0.030389     0.326236     0.597328  Biso 1.000000     N
    N   1.0     0.029978     0.427300     0.693296  Biso 1.000000     N
    N   1.0     0.469619     0.097330     0.173772  Biso 1.000000     N
    N   1.0     0.470027     0.193295     0.072711  Biso 1.000000     N
    N   1.0     0.530397     0.902694     0.173776  Biso 1.000000     N
    N   1.0     0.529990     0.806727     0.072715  Biso 1.000000     N
    N   1.0     0.469619     0.902700     0.826224  Biso 1.000000     N
    N   1.0     0.470030     0.806734     0.927283  Biso 1.000000     N
    N   1.0     0.530398     0.097337     0.826221  Biso 1.000000     N
    N   1.0     0.529988     0.193307     0.927278  Biso 1.000000     N
    N   1.0     0.097328     0.173755     0.469611  Biso 1.000000     N
    N   1.0     0.193305     0.072747     0.470034  Biso 1.000000     N
    N   1.0     0.902689     0.173753     0.530381  Biso 1.000000     N
    N   1.0     0.806715     0.072738     0.529960  Biso 1.000000     N
    N   1.0     0.902685     0.826272     0.469608  Biso 1.000000     N
    N   1.0     0.806715     0.927289     0.470028  Biso 1.000000     N
    N   1.0     0.097325     0.826278     0.530385  Biso 1.000000     N
    N   1.0     0.193297     0.927288     0.529964  Biso 1.000000     N
    N   1.0     0.173755     0.469634     0.097321  Biso 1.000000     N
    N   1.0     0.072701     0.470024     0.193239  Biso 1.000000     N
    N   1.0     0.173757     0.530400     0.902670  Biso 1.000000     N
    N   1.0     0.072710     0.530002     0.806747  Biso 1.000000     N
    N   1.0     0.826266     0.469636     0.902674  Biso 1.000000     N
    N   1.0     0.927315     0.470028     0.806753  Biso 1.000000     N
    N   1.0     0.826264     0.530392     0.097323  Biso 1.000000     N
    N   1.0     0.927315     0.529999     0.193245  Biso 1.000000     N
   Cu   1.0     0.500010     0.000005     0.749963  Biso 1.000000    Cu
   Cu   1.0     0.500009     0.000001     0.250031  Biso 1.000000    Cu
   Cu   1.0     0.750016     0.500012     0.000000  Biso 1.000000    Cu
   Cu   1.0     0.250003     0.500013    -0.000001  Biso 1.000000    Cu
   Cu   1.0    -0.000001     0.750050     0.499995  Biso 1.000000    Cu
   Cu   1.0    -0.000000     0.249980     0.499997  Biso 1.000000    Cu
