#======================================================================

# CRYSTAL DATA

#----------------------------------------------------------------------

data_VESTA_phase_1


_pd_phase_name                         MOF
_cell_length_a                         13.60100
_cell_length_b                         15.29300
_cell_length_c                         15.19400
_cell_angle_alpha                      90.18700
_cell_angle_beta                       89.98100
_cell_angle_gamma                      90.10700
_symmetry_space_group_name_H-M         "P 1"
_symmetry_Int_Tables_number            1

loop_
_symmetry_equiv_pos_as_xyz
   "x, y, z"

loop_
   _atom_site_label
   _atom_site_occupancy
   _atom_site_fract_x
   _atom_site_fract_y
   _atom_site_fract_z
   _atom_site_adp_type
   _atom_site_B_iso_or_equiv
   _atom_site_type_symbol
    H   1.0    -0.008924     0.733172     0.052575  Biso 1.000000     H
    H   1.0     0.910703     0.636686     0.944132  Biso 1.000000     H
    H   1.0     0.739535     0.529497     0.158470  Biso 1.000000     H
    H   1.0     0.827423     0.630358     0.258258  Biso 1.000000     H
    H   1.0     0.794209     0.590813     0.862970  Biso 1.000000     H
    H   1.0     0.711155     0.490544     0.760918  Biso 1.000000     H
    H   1.0     0.643819     0.316569     0.975773  Biso 1.000000     H
    H   1.0     0.730947     0.414122     0.077518  Biso 1.000000     H
    H   1.0     0.607270     0.223288     0.851915  Biso 1.000000     H
    H   1.0     0.514157     0.300669     0.882480  Biso 1.000000     H
    H   1.0    -0.008381     0.762567     0.450793  Biso 1.000000     H
    H   1.0     0.912016     0.859046     0.559753  Biso 1.000000     H
    H   1.0     0.741565     0.967415     0.346083  Biso 1.000000     H
    H   1.0     0.828234     0.866353     0.245799  Biso 1.000000     H
    H   1.0     0.791218     0.903217     0.640605  Biso 1.000000     H
    H   1.0     0.708289     0.003763     0.742403  Biso 1.000000     H
    H   1.0     0.651702     0.181938     0.528725  Biso 1.000000     H
    H   1.0     0.738919     0.084128     0.427437  Biso 1.000000     H
    H   1.0     0.610786     0.273359     0.651676  Biso 1.000000     H
    H   1.0     0.518532     0.196072     0.618203  Biso 1.000000     H
    H   1.0     0.000000     0.551081     0.263398  Biso 1.000000     H
    H   1.0     0.091329     0.442278     0.358303  Biso 1.000000     H
    H   1.0     0.261528     0.654360     0.470274  Biso 1.000000     H
    H   1.0     0.173394     0.754623     0.370781  Biso 1.000000     H
    H   1.0     0.212875     0.362195     0.400083  Biso 1.000000     H
    H   1.0     0.296018     0.260064     0.498701  Biso 1.000000     H
    H   1.0     0.352001     0.469654     0.683145  Biso 1.000000     H
    H   1.0     0.264885     0.571573     0.586704  Biso 1.000000     H
    H   1.0     0.386171     0.345428     0.773238  Biso 1.000000     H
    H   1.0     0.482824     0.380142     0.700713  Biso 1.000000     H
    H   1.0     0.000000     0.946121     0.236848  Biso 1.000000     H
    H   1.0     0.086769     0.054356     0.139715  Biso 1.000000     H
    H   1.0     0.259184     0.842758     0.030372  Biso 1.000000     H
    H   1.0     0.173043     0.743075     0.131918  Biso 1.000000     H
    H   1.0     0.203024     0.135931     0.094013  Biso 1.000000     H
    H   1.0     0.286489     0.237510     0.994496  Biso 1.000000     H
    H   1.0     0.352726     0.024737     0.816959  Biso 1.000000     H
    H   1.0     0.265591     0.923304     0.914130  Biso 1.000000     H
    H   1.0     0.387898     0.149375     0.724093  Biso 1.000000     H
    H   1.0     0.481515     0.116201     0.800233  Biso 1.000000     H
    H   1.0    -0.013139     0.447707     0.740405  Biso 1.000000     H
    H   1.0     0.906004     0.556302     0.646471  Biso 1.000000     H
    H   1.0     0.744048     0.342904     0.526577  Biso 1.000000     H
    H   1.0     0.831892     0.242778     0.626329  Biso 1.000000     H
    H   1.0     0.788718     0.635544     0.601322  Biso 1.000000     H
    H   1.0     0.705447     0.738185     0.504024  Biso 1.000000     H
    H   1.0     0.651158     0.530303     0.316910  Biso 1.000000     H
    H   1.0     0.737517     0.427563     0.412867  Biso 1.000000     H
    H   1.0     0.613625     0.653519     0.227824  Biso 1.000000     H
    H   1.0     0.519191     0.619441     0.302851  Biso 1.000000     H
    H   1.0    -0.013145     0.055363     0.764621  Biso 1.000000     H
    H   1.0     0.906694     0.947053     0.859837  Biso 1.000000     H
    H   1.0     0.743813     0.160461     0.977820  Biso 1.000000     H
    H   1.0     0.831050     0.260210     0.877072  Biso 1.000000     H
    H   1.0     0.791099     0.867333     0.905765  Biso 1.000000     H
    H   1.0     0.707820     0.764688     0.003397  Biso 1.000000     H
    H   1.0     0.650012     0.973691     0.188317  Biso 1.000000     H
    H   1.0     0.736195     0.076494     0.091890  Biso 1.000000     H
    H   1.0     0.612401     0.850217     0.278410  Biso 1.000000     H
    H   1.0     0.518557     0.883115     0.202472  Biso 1.000000     H
    H   1.0     0.000000     0.262829     0.949702  Biso 1.000000     H
    H   1.0     0.097620     0.357312     0.058384  Biso 1.000000     H
    H   1.0     0.254429     0.477487     0.841922  Biso 1.000000     H
    H   1.0     0.166324     0.376775     0.741998  Biso 1.000000     H
    H   1.0     0.216508     0.403224     0.136299  Biso 1.000000     H
    H   1.0     0.300876     0.500550     0.238940  Biso 1.000000     H
    H   1.0     0.349466     0.686957     0.030307  Biso 1.000000     H
    H   1.0     0.261294     0.591057     0.927502  Biso 1.000000     H
    H   1.0     0.390333     0.775285     0.153948  Biso 1.000000     H
    H   1.0     0.485040     0.700969     0.119680  Biso 1.000000     H
    H   1.0     0.000000     0.238054     0.554170  Biso 1.000000     H
    H   1.0     0.095962     0.142784     0.445897  Biso 1.000000     H
    H   1.0     0.253774     0.024945     0.662519  Biso 1.000000     H
    H   1.0     0.166226     0.126084     0.762028  Biso 1.000000     H
    H   1.0     0.214659     0.097644     0.367930  Biso 1.000000     H
    H   1.0     0.299099     0.000000     0.265270  Biso 1.000000     H
    H   1.0     0.348468     0.814865     0.474543  Biso 1.000000     H
    H   1.0     0.260574     0.910830     0.577183  Biso 1.000000     H
    H   1.0     0.389854     0.726169     0.351048  Biso 1.000000     H
    H   1.0     0.483678     0.801485     0.385626  Biso 1.000000     H
    B   1.0     0.816506     0.748081     0.757293  Biso 1.000000     B
    B   1.0     0.198250     0.245352     0.248851  Biso 1.000000     B
    C   1.0     0.935353     0.686408     0.073842  Biso 1.000000     C
    C   1.0     0.889864     0.631857     0.013191  Biso 1.000000     C
    C   1.0     0.818476     0.571058     0.041069  Biso 1.000000     C
    C   1.0     0.796148     0.572287     0.131631  Biso 1.000000     C
    C   1.0     0.844765     0.629056     0.188149  Biso 1.000000     C
    C   1.0     0.769599     0.510685     0.979248  Biso 1.000000     C
    C   1.0     0.764273     0.529962     0.888604  Biso 1.000000     C
    C   1.0     0.716217     0.474429     0.830542  Biso 1.000000     C
    C   1.0     0.671319     0.397781     0.861226  Biso 1.000000     C
    C   1.0     0.676995     0.376321     0.950707  Biso 1.000000     C
    C   1.0     0.725886     0.432622     0.008437  Biso 1.000000     C
    C   1.0     0.562003     0.278203     0.828586  Biso 1.000000     C
    C   1.0     0.936174     0.809530     0.429826  Biso 1.000000     C
    C   1.0     0.891179     0.864012     0.490741  Biso 1.000000     C
    C   1.0     0.820319     0.925121     0.463128  Biso 1.000000     C
    C   1.0     0.797855     0.924314     0.372619  Biso 1.000000     C
    C   1.0     0.845814     0.867496     0.315852  Biso 1.000000     C
    C   1.0     0.771902    -0.014480     0.525049  Biso 1.000000     C
    C   1.0     0.763735     0.965059     0.615272  Biso 1.000000     C
    C   1.0     0.715651     0.020739     0.673139  Biso 1.000000     C
    C   1.0     0.673537     0.098539     0.642570  Biso 1.000000     C
    C   1.0     0.682439     0.121197     0.553588  Biso 1.000000     C
    C   1.0     0.731296     0.064817     0.496115  Biso 1.000000     C
    C   1.0     0.564583     0.218273     0.673468  Biso 1.000000     C
    C   1.0     0.066182     0.571716     0.310734  Biso 1.000000     C
    C   1.0     0.111942     0.510905     0.364256  Biso 1.000000     C
    C   1.0     0.183163     0.538084     0.425886  Biso 1.000000     C
    C   1.0     0.205059     0.628160     0.426644  Biso 1.000000     C
    C   1.0     0.156286     0.684886     0.370721  Biso 1.000000     C
    C   1.0     0.232222     0.476040     0.485219  Biso 1.000000     C
    C   1.0     0.240729     0.386801     0.462607  Biso 1.000000     C
    C   1.0     0.288777     0.328567     0.517421  Biso 1.000000     C
    C   1.0     0.330522     0.357791     0.596620  Biso 1.000000     C
    C   1.0     0.321464     0.445814     0.621366  Biso 1.000000     C
    C   1.0     0.272681     0.503683     0.565746  Biso 1.000000     C
    C   1.0     0.435392     0.324862     0.719426  Biso 1.000000     C
    C   1.0     0.063746     0.925403     0.189485  Biso 1.000000     C
    C   1.0     0.108274     0.985935     0.134612  Biso 1.000000     C
    C   1.0     0.179502     0.958769     0.073017  Biso 1.000000     C
    C   1.0     0.202627     0.869003     0.073787  Biso 1.000000     C
    C   1.0     0.154971     0.812547     0.130942  Biso 1.000000     C
    C   1.0     0.227635     0.020512     0.000000  Biso 1.000000     C
    C   1.0     0.233052     0.110519     0.032693  Biso 1.000000     C
    C   1.0     0.281259     0.168425     0.977440  Biso 1.000000     C
    C   1.0     0.326193     0.138207     0.900093  Biso 1.000000     C
    C   1.0     0.319876     0.049432     0.877416  Biso 1.000000     C
    C   1.0     0.270964     0.991855     0.933493  Biso 1.000000     C
    C   1.0     0.434580     0.170870     0.779372  Biso 1.000000     C
    C   1.0     0.499075     0.248026     0.750206  Biso 1.000000     C
    C   1.0     0.933309     0.426628     0.691301  Biso 1.000000     C
    C   1.0     0.887802     0.487458     0.637714  Biso 1.000000     C
    C   1.0     0.818814     0.459893     0.574278  Biso 1.000000     C
    C   1.0     0.798847     0.369490     0.571664  Biso 1.000000     C
    C   1.0     0.847476     0.312778     0.627713  Biso 1.000000     C
    C   1.0     0.769810     0.522259     0.515241  Biso 1.000000     C
    C   1.0     0.760900     0.611280     0.538614  Biso 1.000000     C
    C   1.0     0.713146     0.670051     0.484150  Biso 1.000000     C
    C   1.0     0.672313     0.641522     0.404318  Biso 1.000000     C
    C   1.0     0.681387     0.553663     0.378994  Biso 1.000000     C
    C   1.0     0.729778     0.495297     0.434335  Biso 1.000000     C
    C   1.0     0.566118     0.674523     0.282683  Biso 1.000000     C
    C   1.0     0.933189     0.076492     0.813558  Biso 1.000000     C
    C   1.0     0.888048     0.015847     0.867786  Biso 1.000000     C
    C   1.0     0.818921     0.043480     0.931027  Biso 1.000000     C
    C   1.0     0.798597     0.133769     0.932865  Biso 1.000000     C
    C   1.0     0.846919     0.190310     0.876223  Biso 1.000000     C
    C   1.0     0.770183     0.981183    -0.009420  Biso 1.000000     C
    C   1.0     0.762328     0.891839     0.968010  Biso 1.000000     C
    C   1.0     0.714701     0.833060     0.022769  Biso 1.000000     C
    C   1.0     0.672877     0.861938     0.102029  Biso 1.000000     C
    C   1.0     0.680983     0.950095     0.126631  Biso 1.000000     C
    C   1.0     0.729278     0.008486     0.071011  Biso 1.000000     C
    C   1.0     0.565726     0.828570     0.223189  Biso 1.000000     C
    C   1.0     0.068486     0.312017     0.928046  Biso 1.000000     C
    C   1.0     0.114542     0.365934     0.988857  Biso 1.000000     C
    C   1.0     0.182254     0.429684     0.960411  Biso 1.000000     C
    C   1.0     0.200666     0.432138     0.869209  Biso 1.000000     C
    C   1.0     0.151823     0.375605     0.812619  Biso 1.000000     C
    C   1.0     0.231797     0.489083     0.022674  Biso 1.000000     C
    C   1.0     0.242774     0.465918     0.111905  Biso 1.000000     C
    C   1.0     0.291368     0.520335     0.170683  Biso 1.000000     C
    C   1.0     0.331053     0.599917     0.141876  Biso 1.000000     C
    C   1.0     0.319995     0.625076     0.053793  Biso 1.000000     C
    C   1.0     0.270647     0.569786     0.995399  Biso 1.000000     C
    C   1.0     0.437934     0.721034     0.175039  Biso 1.000000     C
    C   1.0     0.067523     0.189192     0.575958  Biso 1.000000     C
    C   1.0     0.113186     0.134903     0.515375  Biso 1.000000     C
    C   1.0     0.181217     0.071728     0.543921  Biso 1.000000     C
    C   1.0     0.199964     0.069949     0.635069  Biso 1.000000     C
    C   1.0     0.151397     0.126752     0.691473  Biso 1.000000     C
    C   1.0     0.230707     0.000000     0.481727  Biso 1.000000     C
    C   1.0     0.241420     0.035190     0.392333  Biso 1.000000     C
    C   1.0     0.289913     0.980708     0.333607  Biso 1.000000     C
    C   1.0     0.329799     0.901418     0.362645  Biso 1.000000     C
    C   1.0     0.318942     0.876550     0.450863  Biso 1.000000     C
    C   1.0     0.269726     0.931877     0.509172  Biso 1.000000     C
    C   1.0     0.437127     0.780862     0.330066  Biso 1.000000     C
    C   1.0     0.501807     0.751228     0.252759  Biso 1.000000     C
    N   1.0     0.915406     0.685621     0.161229  Biso 1.000000     N
    N   1.0     0.916064     0.810659     0.342488  Biso 1.000000     N
    N   1.0     0.085796     0.658598     0.313330  Biso 1.000000     N
    N   1.0     0.084487     0.838769     0.188293  Biso 1.000000     N
    N   1.0     0.915804     0.339493     0.686962  Biso 1.000000     N
    N   1.0     0.915258     0.163530     0.817084  Biso 1.000000     N
    N   1.0     0.084569     0.316160     0.840173  Biso 1.000000     N
    N   1.0     0.084120     0.185873     0.663780  Biso 1.000000     N
    O   1.0     0.623728     0.348446     0.799080  Biso 1.000000     O
    O   1.0     0.625010     0.147818     0.704108  Biso 1.000000     O
    O   1.0     0.378922     0.295947     0.644987  Biso 1.000000     O
    O   1.0     0.374663     0.200019     0.851469  Biso 1.000000     O
    O   1.0     0.624831     0.703744     0.355621  Biso 1.000000     O
    O   1.0     0.625448     0.799636     0.150924  Biso 1.000000     O
    O   1.0     0.379464     0.648447     0.204215  Biso 1.000000     O
    O   1.0     0.378296     0.852783     0.300433  Biso 1.000000     O
    F   1.0     0.875548     0.822567     0.777632  Biso 1.000000     F
    F   1.0     0.878716     0.674424     0.740690  Biso 1.000000     F
    F   1.0     0.754126     0.729514     0.829794  Biso 1.000000     F
    F   1.0     0.758823     0.766300     0.681401  Biso 1.000000     F
    F   1.0     0.257972     0.170737     0.233190  Biso 1.000000     F
    F   1.0     0.257784     0.321712     0.255608  Biso 1.000000     F
    F   1.0     0.129692     0.255472     0.178115  Biso 1.000000     F
    F   1.0     0.145611     0.233480     0.329498  Biso 1.000000     F
   Cu   1.0     0.000493     0.748409     0.251569  Biso 1.000000    Cu
   Cu   1.0    -0.000356     0.251461     0.751838  Biso 1.000000    Cu
