#======================================================================

# CRYSTAL DATA

#----------------------------------------------------------------------

data_VESTA_phase_1


_pd_phase_name                         MOF
_cell_length_a                         12.88900
_cell_length_b                         14.50900
_cell_length_c                         14.52600
_cell_angle_alpha                      78.44800
_cell_angle_beta                       63.44800
_cell_angle_gamma                      63.51200
_symmetry_space_group_name_H-M         "P 1"
_symmetry_Int_Tables_number            1

loop_
_symmetry_equiv_pos_as_xyz
   "x, y, z"

loop_
   _atom_site_label
   _atom_site_occupancy
   _atom_site_fract_x
   _atom_site_fract_y
   _atom_site_fract_z
   _atom_site_adp_type
   _atom_site_B_iso_or_equiv
   _atom_site_type_symbol
    H   1.0     0.580289     0.725748     0.302627  Biso 1.000000     H
    H   1.0     0.744272     0.775772     0.159856  Biso 1.000000     H
    H   1.0     0.990363     0.454941     0.089460  Biso 1.000000     H
    H   1.0     0.822804     0.406250     0.228629  Biso 1.000000     H
    H   1.0     0.049973     0.524907     0.929354  Biso 1.000000     H
    H   1.0     0.207628     0.582074     0.786862  Biso 1.000000     H
    H   1.0     0.224923     0.740593     0.804997  Biso 1.000000     H
    H   1.0     0.934483     0.781336     0.112405  Biso 1.000000     H
    H   1.0     0.613108     0.273193     0.694034  Biso 1.000000     H
    H   1.0     0.682887     0.224546     0.837078  Biso 1.000000     H
    H   1.0     0.535246     0.545994     0.905545  Biso 1.000000     H
    H   1.0     0.459625     0.593294     0.766108  Biso 1.000000     H
    H   1.0     0.502870     0.477264     0.066185  Biso 1.000000     H
    H   1.0     0.573083     0.421328     0.209353  Biso 1.000000     H
    H   1.0     0.767021     0.262796     0.192955  Biso 1.000000     H
    H   1.0     0.830029     0.219794     0.885256  Biso 1.000000     H
    H   1.0     0.134011     0.194887     0.227192  Biso 1.000000     H
    H   1.0     0.155077     0.337587     0.276549  Biso 1.000000     H
    H   1.0     0.329457     0.408392     0.955650  Biso 1.000000     H
    H   1.0     0.301374     0.269202     0.907651  Biso 1.000000     H
    H   1.0     0.226471     0.568829     0.025696  Biso 1.000000     H
    H   1.0     0.239908     0.712049     0.082275  Biso 1.000000     H
    H   1.0     0.276991     0.694057     0.239787  Biso 1.000000     H
    H   1.0     0.298916     0.385364     0.280798  Biso 1.000000     H
    H   1.0     0.556008     0.804300     0.774597  Biso 1.000000     H
    H   1.0     0.769816     0.661320     0.725080  Biso 1.000000     H
    H   1.0     0.693431     0.591944     0.045961  Biso 1.000000     H
    H   1.0     0.477290     0.731184     0.094174  Biso 1.000000     H
    H   1.0     0.822778     0.431743     0.977243  Biso 1.000000     H
    H   1.0     0.037440     0.289036     0.920767  Biso 1.000000     H
    H   1.0     0.214034     0.306176     0.761627  Biso 1.000000     H
    H   1.0     0.965782     0.613552     0.719059  Biso 1.000000     H
    C   1.0     0.588620     0.536431     0.359943  Biso 1.000000     C
    C   1.0     0.690818     0.562967     0.274897  Biso 1.000000     C
    C   1.0     0.670407     0.667081     0.255317  Biso 1.000000     C
    C   1.0     0.763165     0.694539     0.175991  Biso 1.000000     C
    C   1.0     0.879967     0.619195     0.114465  Biso 1.000000     C
    C   1.0     0.899859     0.514907     0.134668  Biso 1.000000     C
    C   1.0     0.806359     0.487088     0.213380  Biso 1.000000     C
    C   1.0     0.977191     0.650568     0.030443  Biso 1.000000     C
    C   1.0     0.058059     0.593744     0.938560  Biso 1.000000     C
    C   1.0     0.146489     0.625746     0.858115  Biso 1.000000     C
    C   1.0     0.156579     0.714769     0.867620  Biso 1.000000     C
    C   1.0     0.079491     0.770660     0.959871  Biso 1.000000     C
    C   1.0     0.990717     0.738392     0.040508  Biso 1.000000     C
    C   1.0     0.097762     0.860453     0.974339  Biso 1.000000     C
    C   1.0     0.488339     0.462315     0.635983  Biso 1.000000     C
    C   1.0     0.531898     0.436232     0.720783  Biso 1.000000     C
    C   1.0     0.596369     0.332330     0.740957  Biso 1.000000     C
    C   1.0     0.636442     0.305631     0.820470  Biso 1.000000     C
    C   1.0     0.615181     0.381517     0.881619  Biso 1.000000     C
    C   1.0     0.550760     0.485585     0.860730  Biso 1.000000     C
    C   1.0     0.509003     0.512627     0.781849  Biso 1.000000     C
    C   1.0     0.658600     0.351000     0.966023  Biso 1.000000     C
    C   1.0     0.589244     0.408476     0.057542  Biso 1.000000     C
    C   1.0     0.627971     0.377133     0.138425  Biso 1.000000     C
    C   1.0     0.736641     0.288060     0.129882  Biso 1.000000     C
    C   1.0     0.809169     0.231534     0.038020  Biso 1.000000     C
    C   1.0     0.770209     0.263245     0.956837  Biso 1.000000     C
    C   1.0     0.931782     0.141590     0.024432  Biso 1.000000     C
    C   1.0     0.198965     0.138087     0.038009  Biso 1.000000     C
    C   1.0     0.216261     0.222788     0.064413  Biso 1.000000     C
    C   1.0     0.176581     0.242217     0.168352  Biso 1.000000     C
    C   1.0     0.189904     0.321520     0.195439  Biso 1.000000     C
    C   1.0     0.244663     0.383195     0.119885  Biso 1.000000     C
    C   1.0     0.284541     0.363072     0.015771  Biso 1.000000     C
    C   1.0     0.269915     0.284381     0.988343  Biso 1.000000     C
    C   1.0     0.257384     0.467449     0.150766  Biso 1.000000     C
    C   1.0     0.244566     0.559657     0.094071  Biso 1.000000     C
    C   1.0     0.251585     0.640515     0.125739  Biso 1.000000     C
    C   1.0     0.272060     0.631093     0.214226  Biso 1.000000     C
    C   1.0     0.289108     0.538527     0.269899  Biso 1.000000     C
    C   1.0     0.281923     0.457459     0.238008  Biso 1.000000     C
    C   1.0     0.322676     0.524373     0.359119  Biso 1.000000     C
    C   1.0     0.374259     0.862243     0.963653  Biso 1.000000     C
    C   1.0     0.502886     0.777074     0.937399  Biso 1.000000     C
    C   1.0     0.587037     0.757170     0.833403  Biso 1.000000     C
    C   1.0     0.707167     0.677721     0.806214  Biso 1.000000     C
    C   1.0     0.748139     0.616420     0.881713  Biso 1.000000     C
    C   1.0     0.663280     0.636952     0.985877  Biso 1.000000     C
    C   1.0     0.542037     0.715716     0.013425  Biso 1.000000     C
    C   1.0     0.876674     0.532280     0.850701  Biso 1.000000     C
    C   1.0     0.900076     0.440649     0.908176  Biso 1.000000     C
    C   1.0     0.020409     0.360040     0.876539  Biso 1.000000     C
    C   1.0     0.120000     0.368994     0.787163  Biso 1.000000     C
    C   1.0     0.099412     0.460950     0.730560  Biso 1.000000     C
    C   1.0     0.978537     0.541856     0.762550  Biso 1.000000     C
    C   1.0     0.207927     0.474888     0.640221  Biso 1.000000     C
    O   1.0     0.595493     0.444933     0.364067  Biso 1.000000     O
    O   1.0     0.498839     0.609545     0.422760  Biso 1.000000     O
    O   1.0     0.056798     0.886860     0.067529  Biso 1.000000     O
    O   1.0     0.155880     0.902248     0.893869  Biso 1.000000     O
    O   1.0     0.407342     0.553788     0.631964  Biso 1.000000     O
    O   1.0     0.534775     0.389118     0.573406  Biso 1.000000     O
    O   1.0     0.011967     0.115008     0.931456  Biso 1.000000     O
    O   1.0     0.949752     0.099831     0.105316  Biso 1.000000     O
    O   1.0     0.210317     0.134301     0.946429  Biso 1.000000     O
    O   1.0     0.171501     0.075316     0.111057  Biso 1.000000     O
    O   1.0     0.376061     0.431245     0.385595  Biso 1.000000     O
    O   1.0     0.299780     0.605146     0.400368  Biso 1.000000     O
    O   1.0     0.289002     0.866267     0.054990  Biso 1.000000     O
    O   1.0     0.358330     0.925298     0.890522  Biso 1.000000     O
    O   1.0     0.194117     0.568016     0.613320  Biso 1.000000     O
    O   1.0     0.307388     0.394120     0.598465  Biso 1.000000     O
   Cu   1.0     0.457792     0.407712     0.478646  Biso 1.000000    Cu
   Cu   1.0     0.345483     0.591310     0.518718  Biso 1.000000    Cu
   Cu   1.0     0.186733     0.021014     0.908420  Biso 1.000000    Cu
   Cu   1.0     0.113834     0.980354     0.091881  Biso 1.000000    Cu
