#======================================================================

# CRYSTAL DATA

#----------------------------------------------------------------------

data_VESTA_phase_1


_pd_phase_name                         MOF
_cell_length_a                         14.29700
_cell_length_b                         18.90200
_cell_length_c                         18.90100
_cell_angle_alpha                      66.13300
_cell_angle_beta                       75.39500
_cell_angle_gamma                      104.60500
_symmetry_space_group_name_H-M         "P 1"
_symmetry_Int_Tables_number            1

loop_
_symmetry_equiv_pos_as_xyz
   "x, y, z"

loop_
   _atom_site_label
   _atom_site_occupancy
   _atom_site_fract_x
   _atom_site_fract_y
   _atom_site_fract_z
   _atom_site_adp_type
   _atom_site_B_iso_or_equiv
   _atom_site_type_symbol
    H   1.0     0.252031     0.543693     0.613595  Biso 1.000000     H
    H   1.0     0.539948     0.767757     0.480708  Biso 1.000000     H
    H   1.0     0.498637     0.815537     0.353764  Biso 1.000000     H
    H   1.0     0.331822     0.727943     0.357631  Biso 1.000000     H
    H   1.0     0.369637     0.492856     0.667606  Biso 1.000000     H
    H   1.0     0.398250     0.447061     0.800841  Biso 1.000000     H
    H   1.0     0.509082     0.703490     0.749068  Biso 1.000000     H
    H   1.0     0.477192     0.749545     0.617272  Biso 1.000000     H
    H   1.0     0.865610     0.613639     0.842608  Biso 1.000000     H
    H   1.0     0.020860     0.480768     0.751583  Biso 1.000000     H
    H   1.0     0.852566     0.353859     0.830574  Biso 1.000000     H
    H   1.0     0.689483     0.357745     0.914085  Biso 1.000000     H
    H   1.0     0.037424     0.667647     0.839560  Biso 1.000000     H
    H   1.0     0.199473     0.800739     0.752190  Biso 1.000000     H
    H   1.0     0.258366     0.749006     0.547501  Biso 1.000000     H
    H   1.0     0.094533     0.617324     0.633179  Biso 1.000000     H
    H   1.0     0.708394     0.842561     0.543671  Biso 1.000000     H
    H   1.0     0.772236     0.751491     0.767769  Biso 1.000000     H
    H   1.0     0.683113     0.830699     0.815475  Biso 1.000000     H
    H   1.0     0.603859     0.914341     0.727855  Biso 1.000000     H
    H   1.0     0.877065     0.839669     0.492852  Biso 1.000000     H
    H   1.0     0.951642     0.752361     0.446932  Biso 1.000000     H
    H   1.0     0.805995     0.547543     0.703293  Biso 1.000000     H
    H   1.0     0.727913     0.633164     0.749475  Biso 1.000000     H
    H   1.0     0.747961     0.456271     0.386451  Biso 1.000000     H
    H   1.0     0.460048     0.232208     0.519278  Biso 1.000000     H
    H   1.0     0.501337     0.184390     0.646230  Biso 1.000000     H
    H   1.0     0.668141     0.271958     0.642399  Biso 1.000000     H
    H   1.0     0.630372     0.507121     0.332423  Biso 1.000000     H
    H   1.0     0.601788     0.552942     0.199175  Biso 1.000000     H
    H   1.0     0.491002     0.296530     0.250893  Biso 1.000000     H
    H   1.0     0.522853     0.250448     0.382708  Biso 1.000000     H
    H   1.0     0.134421     0.386405     0.157323  Biso 1.000000     H
    H   1.0     0.979283     0.519330     0.248349  Biso 1.000000     H
    H   1.0     0.147613     0.646210     0.169345  Biso 1.000000     H
    H   1.0     0.310658     0.642273     0.085851  Biso 1.000000     H
    H   1.0     0.962770     0.332450     0.160310  Biso 1.000000     H
    H   1.0     0.800792     0.199303     0.247646  Biso 1.000000     H
    H   1.0     0.741661     0.250984     0.452364  Biso 1.000000     H
    H   1.0     0.905425     0.382719     0.366729  Biso 1.000000     H
    H   1.0     0.291660     0.157339     0.456351  Biso 1.000000     H
    H   1.0     0.227769     0.248446     0.232275  Biso 1.000000     H
    H   1.0     0.316932     0.169297     0.184506  Biso 1.000000     H
    H   1.0     0.396277     0.085692     0.272064  Biso 1.000000     H
    H   1.0     0.122938     0.160270     0.507200  Biso 1.000000     H
    H   1.0     0.048297     0.247586     0.553058  Biso 1.000000     H
    H   1.0     0.193915     0.452332     0.296660  Biso 1.000000     H
    H   1.0     0.272036     0.366703     0.250541  Biso 1.000000     H
    C   1.0     0.180485     0.580241     0.490088  Biso 1.000000     C
    C   1.0     0.283074     0.630157     0.485681  Biso 1.000000     C
    C   1.0     0.307807     0.602565     0.556536  Biso 1.000000     C
    C   1.0     0.399764     0.651756     0.556079  Biso 1.000000     C
    C   1.0     0.468020     0.728840     0.482088  Biso 1.000000     C
    C   1.0     0.444673     0.755736     0.410745  Biso 1.000000     C
    C   1.0     0.352233     0.707079     0.412184  Biso 1.000000     C
    C   1.0     0.421030     0.624434     0.633304  Biso 1.000000     C
    C   1.0     0.398716     0.538996     0.685981  Biso 1.000000     C
    C   1.0     0.415236     0.513132     0.760154  Biso 1.000000     C
    C   1.0     0.455194     0.572462     0.783146  Biso 1.000000     C
    C   1.0     0.478604     0.657882     0.730648  Biso 1.000000     C
    C   1.0     0.461411     0.683428     0.656737  Biso 1.000000     C
    C   1.0     0.472194     0.545128     0.862759  Biso 1.000000     C
    C   1.0     0.670579     0.490197     0.929394  Biso 1.000000     C
    C   1.0     0.768762     0.485763     0.883926  Biso 1.000000     C
    C   1.0     0.864361     0.556600     0.840766  Biso 1.000000     C
    C   1.0     0.955910     0.556142     0.792113  Biso 1.000000     C
    C   1.0     0.950230     0.482167     0.789008  Biso 1.000000     C
    C   1.0     0.855540     0.410829     0.833403  Biso 1.000000     C
    C   1.0     0.764446     0.412295     0.880461  Biso 1.000000     C
    C   1.0     0.054473     0.633324     0.742285  Biso 1.000000     C
    C   1.0     0.084900     0.685976     0.775064  Biso 1.000000     C
    C   1.0     0.175678     0.760093     0.726783  Biso 1.000000     C
    C   1.0     0.238634     0.783043     0.644481  Biso 1.000000     C
    C   1.0     0.209450     0.730601     0.611521  Biso 1.000000     C
    C   1.0     0.118275     0.656758     0.659851  Biso 1.000000     C
    C   1.0     0.335236     0.862638     0.592134  Biso 1.000000     C
    C   1.0     0.600280     0.929545     0.580216  Biso 1.000000     C
    C   1.0     0.652891     0.883991     0.630144  Biso 1.000000     C
    C   1.0     0.705273     0.840765     0.602544  Biso 1.000000     C
    C   1.0     0.748112     0.792123     0.651739  Biso 1.000000     C
    C   1.0     0.739181     0.788983     0.728857  Biso 1.000000     C
    C   1.0     0.688940     0.833457     0.755701  Biso 1.000000     C
    C   1.0     0.645161     0.880646     0.707028  Biso 1.000000     C
    C   1.0     0.796835     0.742288     0.624410  Biso 1.000000     C
    C   1.0     0.860000     0.775133     0.538950  Biso 1.000000     C
    C   1.0     0.902530     0.726924     0.513019  Biso 1.000000     C
    C   1.0     0.883118     0.644576     0.572291  Biso 1.000000     C
    C   1.0     0.821113     0.611583     0.657740  Biso 1.000000     C
    C   1.0     0.778246     0.659856     0.683346  Biso 1.000000     C
    C   1.0     0.927375     0.592283     0.544944  Biso 1.000000     C
    C   1.0     0.819494     0.419689     0.509951  Biso 1.000000     C
    C   1.0     0.716911     0.369771     0.514354  Biso 1.000000     C
    C   1.0     0.692180     0.397391     0.443500  Biso 1.000000     C
    C   1.0     0.600230     0.348217     0.443939  Biso 1.000000     C
    C   1.0     0.531983     0.271108     0.517906  Biso 1.000000     C
    C   1.0     0.555301     0.244204     0.589263  Biso 1.000000     C
    C   1.0     0.647737     0.292845     0.587844  Biso 1.000000     C
    C   1.0     0.578961     0.375542     0.366716  Biso 1.000000     C
    C   1.0     0.601329     0.460991     0.314027  Biso 1.000000     C
    C   1.0     0.584782     0.486865     0.239864  Biso 1.000000     C
    C   1.0     0.544874     0.427553     0.216840  Biso 1.000000     C
    C   1.0     0.521445     0.342126     0.269336  Biso 1.000000     C
    C   1.0     0.538657     0.316571     0.343237  Biso 1.000000     C
    C   1.0     0.527910     0.454884     0.137210  Biso 1.000000     C
    C   1.0     0.329488     0.509792     0.070574  Biso 1.000000     C
    C   1.0     0.231324     0.514267     0.116013  Biso 1.000000     C
    C   1.0     0.135710     0.443448     0.159170  Biso 1.000000     C
    C   1.0     0.044166     0.443930     0.207804  Biso 1.000000     C
    C   1.0     0.049882     0.517914     0.210901  Biso 1.000000     C
    C   1.0     0.144601     0.589225     0.166537  Biso 1.000000     C
    C   1.0     0.235674     0.587743     0.119471  Biso 1.000000     C
    C   1.0     0.945624     0.366728     0.257616  Biso 1.000000     C
    C   1.0     0.915233     0.314113     0.224795  Biso 1.000000     C
    C   1.0     0.824532     0.239935     0.273074  Biso 1.000000     C
    C   1.0     0.761520     0.216972     0.355371  Biso 1.000000     C
    C   1.0     0.790635     0.269405     0.388352  Biso 1.000000     C
    C   1.0     0.881734     0.343306     0.340024  Biso 1.000000     C
    C   1.0     0.664938     0.137361     0.407698  Biso 1.000000     C
    C   1.0     0.399881     0.070454     0.419707  Biso 1.000000     C
    C   1.0     0.347201     0.115974     0.369827  Biso 1.000000     C
    C   1.0     0.294790     0.159166     0.397463  Biso 1.000000     C
    C   1.0     0.251941     0.207813     0.348282  Biso 1.000000     C
    C   1.0     0.260812     0.210932     0.271179  Biso 1.000000     C
    C   1.0     0.311131     0.166529     0.244280  Biso 1.000000     C
    C   1.0     0.354959     0.119364     0.292921  Biso 1.000000     C
    C   1.0     0.203189     0.257621     0.375640  Biso 1.000000     C
    C   1.0     0.139955     0.224784     0.461079  Biso 1.000000     C
    C   1.0     0.097445     0.273019     0.486983  Biso 1.000000     C
    C   1.0     0.116826     0.355349     0.427679  Biso 1.000000     C
    C   1.0     0.178846     0.388315     0.342243  Biso 1.000000     C
    C   1.0     0.221680     0.340013     0.316664  Biso 1.000000     C
    C   1.0     0.072569     0.407653     0.455010  Biso 1.000000     C
    O   1.0     0.117043     0.514088     0.561097  Biso 1.000000     O
    O   1.0     0.162709     0.608305     0.423092  Biso 1.000000     O
    O   1.0     0.432736     0.465706     0.915364  Biso 1.000000     O
    O   1.0     0.525360     0.603379     0.872736  Biso 1.000000     O
    O   1.0     0.678276     0.561177     0.924641  Biso 1.000000     O
    O   1.0     0.585723     0.423283     0.968190  Biso 1.000000     O
    O   1.0     0.348735     0.915182     0.619009  Biso 1.000000     O
    O   1.0     0.398051     0.872706     0.523720  Biso 1.000000     O
    O   1.0     0.602841     0.924658     0.514105  Biso 1.000000     O
    O   1.0     0.554658     0.968627     0.608200  Biso 1.000000     O
    O   1.0     0.967728     0.619260     0.465499  Biso 1.000000     O
    O   1.0     0.921929     0.523897     0.603224  Biso 1.000000     O
    O   1.0     0.882929     0.485840     0.438940  Biso 1.000000     O
    O   1.0     0.837267     0.391626     0.576949  Biso 1.000000     O
    O   1.0     0.567064     0.534321     0.084729  Biso 1.000000     O
    O   1.0     0.474994     0.396618     0.127128  Biso 1.000000     O
    O   1.0     0.321831     0.438732     0.075553  Biso 1.000000     O
    O   1.0     0.414304     0.576763     0.031569  Biso 1.000000     O
    O   1.0     0.651381     0.084852     0.380782  Biso 1.000000     O
    O   1.0     0.602226     0.127209     0.476200  Biso 1.000000     O
    O   1.0     0.397506     0.075473     0.485727  Biso 1.000000     O
    O   1.0     0.445370     0.031272     0.391783  Biso 1.000000     O
    O   1.0     0.032278     0.380709     0.534453  Biso 1.000000     O
    O   1.0     0.078082     0.476067     0.396726  Biso 1.000000     O
   Cu   1.0     0.549503     0.573806     0.977064  Biso 1.000000    Cu
   Cu   1.0     0.526384     0.977035     0.449043  Biso 1.000000    Cu
   Cu   1.0     0.975536     0.449060     0.573813  Biso 1.000000    Cu
   Cu   1.0     0.450575     0.426186     0.022917  Biso 1.000000    Cu
   Cu   1.0     0.473794     0.022962     0.550870  Biso 1.000000    Cu
   Cu   1.0     0.024469     0.550891     0.426168  Biso 1.000000    Cu
