#======================================================================

# CRYSTAL DATA

#----------------------------------------------------------------------

data_VESTA_phase_1


_pd_phase_name                         MOF
_cell_length_a                         16.12900
_cell_length_b                         16.12900
_cell_length_c                         16.12800
_cell_angle_alpha                      90.00100
_cell_angle_beta                       89.99900
_cell_angle_gamma                      89.99800
_symmetry_space_group_name_H-M         "P 1"
_symmetry_Int_Tables_number            1

loop_
_symmetry_equiv_pos_as_xyz
   "x, y, z"

loop_
   _atom_site_label
   _atom_site_occupancy
   _atom_site_fract_x
   _atom_site_fract_y
   _atom_site_fract_z
   _atom_site_adp_type
   _atom_site_B_iso_or_equiv
   _atom_site_type_symbol
    H   1.0     0.625276     0.718120     0.844515  Biso 1.000000     H
    H   1.0     0.742282     0.592827     0.845748  Biso 1.000000     H
    H   1.0     0.550851     0.629278     0.114468  Biso 1.000000     H
    H   1.0     0.565719     0.522976     0.089363  Biso 1.000000     H
    H   1.0     0.645304     0.577726     0.140693  Biso 1.000000     H
    H   1.0     0.374678     0.281854     0.844502  Biso 1.000000     H
    H   1.0     0.257685     0.407164     0.845736  Biso 1.000000     H
    H   1.0     0.449086     0.370656     0.114472  Biso 1.000000     H
    H   1.0     0.434218     0.476956     0.089371  Biso 1.000000     H
    H   1.0     0.354634     0.422208     0.140701  Biso 1.000000     H
    H   1.0     0.374659     0.718100     0.155497  Biso 1.000000     H
    H   1.0     0.257690     0.592778     0.154267  Biso 1.000000     H
    H   1.0     0.449072     0.629301     0.885521  Biso 1.000000     H
    H   1.0     0.434221     0.523002     0.910634  Biso 1.000000     H
    H   1.0     0.354631     0.577737     0.859297  Biso 1.000000     H
    H   1.0     0.625286     0.281846     0.155488  Biso 1.000000     H
    H   1.0     0.742272     0.407152     0.154250  Biso 1.000000     H
    H   1.0     0.550847     0.370694     0.885532  Biso 1.000000     H
    H   1.0     0.565731     0.476990     0.910637  Biso 1.000000     H
    H   1.0     0.645299     0.422226     0.859300  Biso 1.000000     H
    H   1.0     0.844474     0.625292     0.718155  Biso 1.000000     H
    H   1.0     0.845689     0.742258     0.592820  Biso 1.000000     H
    H   1.0     0.114444     0.550842     0.629310  Biso 1.000000     H
    H   1.0     0.089367     0.565770     0.523006  Biso 1.000000     H
    H   1.0     0.140704     0.645313     0.577811  Biso 1.000000     H
    H   1.0     0.844462     0.374705     0.281870  Biso 1.000000     H
    H   1.0     0.845692     0.257712     0.407183  Biso 1.000000     H
    H   1.0     0.114524     0.449002     0.370623  Biso 1.000000     H
    H   1.0     0.089307     0.434353     0.476932  Biso 1.000000     H
    H   1.0     0.140649     0.354636     0.422379  Biso 1.000000     H
    H   1.0     0.155487     0.374663     0.718129  Biso 1.000000     H
    H   1.0     0.154241     0.257675     0.592814  Biso 1.000000     H
    H   1.0     0.885495     0.449102     0.629327  Biso 1.000000     H
    H   1.0     0.910619     0.434287     0.523020  Biso 1.000000     H
    H   1.0     0.859274     0.354680     0.577719  Biso 1.000000     H
    H   1.0     0.155496     0.625289     0.281862  Biso 1.000000     H
    H   1.0     0.154249     0.742258     0.407198  Biso 1.000000     H
    H   1.0     0.885492     0.550878     0.370633  Biso 1.000000     H
    H   1.0     0.910575     0.565717     0.476947  Biso 1.000000     H
    H   1.0     0.859258     0.645315     0.422208  Biso 1.000000     H
    H   1.0     0.718075     0.844443     0.625277  Biso 1.000000     H
    H   1.0     0.592767     0.845691     0.742278  Biso 1.000000     H
    H   1.0     0.629343     0.114472     0.550910  Biso 1.000000     H
    H   1.0     0.523035     0.089366     0.565717  Biso 1.000000     H
    H   1.0     0.577739     0.140691     0.645342  Biso 1.000000     H
    H   1.0     0.281847     0.844456     0.374686  Biso 1.000000     H
    H   1.0     0.407151     0.845697     0.257685  Biso 1.000000     H
    H   1.0     0.370624     0.114485     0.449065  Biso 1.000000     H
    H   1.0     0.476929     0.089330     0.434310  Biso 1.000000     H
    H   1.0     0.422280     0.140658     0.354652  Biso 1.000000     H
    H   1.0     0.718094     0.155491     0.374666  Biso 1.000000     H
    H   1.0     0.592798     0.154244     0.257662  Biso 1.000000     H
    H   1.0     0.629279     0.885501     0.449104  Biso 1.000000     H
    H   1.0     0.522976     0.910633     0.434293  Biso 1.000000     H
    H   1.0     0.577675     0.859289     0.354674  Biso 1.000000     H
    H   1.0     0.281824     0.155484     0.625337  Biso 1.000000     H
    H   1.0     0.407160     0.154250     0.742299  Biso 1.000000     H
    H   1.0     0.370635     0.885500     0.550888  Biso 1.000000     H
    H   1.0     0.476929     0.910610     0.565710  Biso 1.000000     H
    H   1.0     0.422228     0.859267     0.645316  Biso 1.000000     H
    H   1.0     0.218116     0.125309     0.344487  Biso 1.000000     H
    H   1.0     0.092778     0.242272     0.345711  Biso 1.000000     H
    H   1.0     0.129321     0.050888     0.614467  Biso 1.000000     H
    H   1.0     0.023015     0.065751     0.589374  Biso 1.000000     H
    H   1.0     0.077766     0.145335     0.640710  Biso 1.000000     H
    H   1.0     0.781820     0.874632     0.344499  Biso 1.000000     H
    H   1.0     0.907122     0.757632     0.345739  Biso 1.000000     H
    H   1.0     0.870601     0.949055     0.614485  Biso 1.000000     H
    H   1.0     0.976914     0.934274     0.589350  Biso 1.000000     H
    H   1.0     0.922234     0.854640     0.640692  Biso 1.000000     H
    H   1.0     0.218068     0.874708     0.655521  Biso 1.000000     H
    H   1.0     0.092777     0.757708     0.654277  Biso 1.000000     H
    H   1.0     0.129280     0.949077     0.385522  Biso 1.000000     H
    H   1.0     0.022985     0.934132     0.410565  Biso 1.000000     H
    H   1.0     0.077820     0.854592     0.359270  Biso 1.000000     H
    H   1.0     0.781819     0.125330     0.655502  Biso 1.000000     H
    H   1.0     0.907112     0.242327     0.654246  Biso 1.000000     H
    H   1.0     0.870661     0.050865     0.385537  Biso 1.000000     H
    H   1.0     0.976955     0.065747     0.410632  Biso 1.000000     H
    H   1.0     0.922195     0.145315     0.359294  Biso 1.000000     H
    H   1.0     0.125310     0.344496     0.218147  Biso 1.000000     H
    H   1.0     0.242285     0.345718     0.092817  Biso 1.000000     H
    H   1.0     0.050880     0.614455     0.129320  Biso 1.000000     H
    H   1.0     0.065747     0.589356     0.023012  Biso 1.000000     H
    H   1.0     0.145330     0.640681     0.077766  Biso 1.000000     H
    H   1.0     0.874629     0.344500     0.781844  Biso 1.000000     H
    H   1.0     0.757663     0.345719     0.907185  Biso 1.000000     H
    H   1.0     0.949059     0.614456     0.870673  Biso 1.000000     H
    H   1.0     0.934201     0.589347     0.976984  Biso 1.000000     H
    H   1.0     0.854612     0.640687     0.922240  Biso 1.000000     H
    H   1.0     0.874638     0.655476     0.218134  Biso 1.000000     H
    H   1.0     0.757660     0.654234     0.092813  Biso 1.000000     H
    H   1.0     0.949098     0.385523     0.129291  Biso 1.000000     H
    H   1.0     0.934183     0.410607     0.022992  Biso 1.000000     H
    H   1.0     0.854634     0.359273     0.077778  Biso 1.000000     H
    H   1.0     0.125278     0.655471     0.781873  Biso 1.000000     H
    H   1.0     0.242279     0.654233     0.907174  Biso 1.000000     H
    H   1.0     0.050884     0.385502     0.870686  Biso 1.000000     H
    H   1.0     0.065718     0.410619     0.976992  Biso 1.000000     H
    H   1.0     0.145320     0.359285     0.922267  Biso 1.000000     H
    H   1.0     0.344471     0.218130     0.125337  Biso 1.000000     H
    H   1.0     0.345692     0.092772     0.242279  Biso 1.000000     H
    H   1.0     0.614479     0.129380     0.050952  Biso 1.000000     H
    H   1.0     0.589294     0.023073     0.065628  Biso 1.000000     H
    H   1.0     0.640645     0.077646     0.145326  Biso 1.000000     H
    H   1.0     0.344449     0.781885     0.874715  Biso 1.000000     H
    H   1.0     0.345698     0.907190     0.757715  Biso 1.000000     H
    H   1.0     0.614510     0.870576     0.949006  Biso 1.000000     H
    H   1.0     0.589275     0.976884     0.934408  Biso 1.000000     H
    H   1.0     0.640620     0.922379     0.854657  Biso 1.000000     H
    H   1.0     0.655465     0.218115     0.874715  Biso 1.000000     H
    H   1.0     0.654242     0.092814     0.757709  Biso 1.000000     H
    H   1.0     0.385443     0.129363     0.949032  Biso 1.000000     H
    H   1.0     0.410658     0.023057     0.934393  Biso 1.000000     H
    H   1.0     0.359318     0.077598     0.854666  Biso 1.000000     H
    H   1.0     0.655481     0.781818     0.125323  Biso 1.000000     H
    H   1.0     0.654225     0.907136     0.242306  Biso 1.000000     H
    H   1.0     0.385509     0.870628     0.050889  Biso 1.000000     H
    H   1.0     0.410624     0.976921     0.065717  Biso 1.000000     H
    H   1.0     0.359289     0.922218     0.145323  Biso 1.000000     H
   Li   1.0     0.499967     0.749969    -0.000010  Biso 1.000000    Li
   Li   1.0     0.499976     0.249983     0.000001  Biso 1.000000    Li
   Li   1.0    -0.000014     0.499981     0.750006  Biso 1.000000    Li
   Li   1.0    -0.000009     0.499986     0.249993  Biso 1.000000    Li
   Li   1.0     0.749971    -0.000003     0.499993  Biso 1.000000    Li
   Li   1.0     0.249978    -0.000005     0.499999  Biso 1.000000    Li
    B   1.0     0.749972     0.499979    -0.000024  Biso 1.000000     B
    B   1.0     0.249984     0.499973    -0.000009  Biso 1.000000     B
    B   1.0    -0.000041     0.749964     0.500000  Biso 1.000000     B
    B   1.0    -0.000008     0.249992     0.499990  Biso 1.000000     B
    B   1.0     0.499994    -0.000006     0.749997  Biso 1.000000     B
    B   1.0     0.499974    -0.000002     0.249991  Biso 1.000000     B
    C   1.0     0.629375     0.610044     0.011317  Biso 1.000000     C
    C   1.0     0.639920     0.673641     0.892797  Biso 1.000000     C
    C   1.0     0.698695     0.612325     0.892821  Biso 1.000000     C
    C   1.0     0.596579     0.583612     0.093548  Biso 1.000000     C
    C   1.0     0.370564     0.389900     0.011317  Biso 1.000000     C
    C   1.0     0.360029     0.326328     0.892790  Biso 1.000000     C
    C   1.0     0.301259     0.387649     0.892812  Biso 1.000000     C
    C   1.0     0.403357     0.416320     0.093553  Biso 1.000000     C
    C   1.0     0.370553     0.610052     0.988681  Biso 1.000000     C
    C   1.0     0.360023     0.673622     0.107211  Biso 1.000000     C
    C   1.0     0.301254     0.612303     0.107187  Biso 1.000000     C
    C   1.0     0.403350     0.583634     0.906444  Biso 1.000000     C
    C   1.0     0.629387     0.389927     0.988685  Biso 1.000000     C
    C   1.0     0.639922     0.326325     0.107204  Biso 1.000000     C
    C   1.0     0.698698     0.387637     0.107175  Biso 1.000000     C
    C   1.0     0.596581     0.416348     0.906455  Biso 1.000000     C
    C   1.0     0.011313     0.629387     0.610089  Biso 1.000000     C
    C   1.0     0.892751     0.639932     0.673669  Biso 1.000000     C
    C   1.0     0.892771     0.698696     0.612343  Biso 1.000000     C
    C   1.0     0.093547     0.596599     0.583663  Biso 1.000000     C
    C   1.0     0.011314     0.370568     0.389920  Biso 1.000000     C
    C   1.0     0.892744     0.360057     0.326348  Biso 1.000000     C
    C   1.0     0.892771     0.301274     0.387657  Biso 1.000000     C
    C   1.0     0.093535     0.403372     0.416355  Biso 1.000000     C
    C   1.0     0.988644     0.370581     0.610070  Biso 1.000000     C
    C   1.0     0.107205     0.360029     0.673648  Biso 1.000000     C
    C   1.0     0.107170     0.301254     0.612329  Biso 1.000000     C
    C   1.0     0.906421     0.403393     0.583642  Biso 1.000000     C
    C   1.0     0.988640     0.629396     0.389919  Biso 1.000000     C
    C   1.0     0.107201     0.639937     0.326328  Biso 1.000000     C
    C   1.0     0.107185     0.698679     0.387679  Biso 1.000000     C
    C   1.0     0.906405     0.596594     0.416315  Biso 1.000000     C
    C   1.0     0.610064     0.011316     0.629408  Biso 1.000000     C
    C   1.0     0.673607     0.892733     0.639928  Biso 1.000000     C
    C   1.0     0.612295     0.892766     0.698711  Biso 1.000000     C
    C   1.0     0.583654     0.093551     0.596614  Biso 1.000000     C
    C   1.0     0.389904     0.011307     0.370574  Biso 1.000000     C
    C   1.0     0.326323     0.892739     0.360046  Biso 1.000000     C
    C   1.0     0.387633     0.892769     0.301262  Biso 1.000000     C
    C   1.0     0.416325     0.093531     0.403385  Biso 1.000000     C
    C   1.0     0.610026     0.988652     0.370591  Biso 1.000000     C
    C   1.0     0.673605     0.107215     0.360041  Biso 1.000000     C
    C   1.0     0.612312     0.107174     0.301242  Biso 1.000000     C
    C   1.0     0.583596     0.906430     0.403399  Biso 1.000000     C
    C   1.0     0.389895     0.988651     0.629416  Biso 1.000000     C
    C   1.0     0.326298     0.107198     0.639980  Biso 1.000000     C
    C   1.0     0.387654     0.107181     0.698714  Biso 1.000000     C
    C   1.0     0.416309     0.906422     0.596606  Biso 1.000000     C
    C   1.0     0.110067     0.129411     0.511323  Biso 1.000000     C
    C   1.0     0.173634     0.139945     0.392771  Biso 1.000000     C
    C   1.0     0.112312     0.198714     0.392794  Biso 1.000000     C
    C   1.0     0.083649     0.096614     0.593558  Biso 1.000000     C
    C   1.0     0.889880     0.870559     0.511327  Biso 1.000000     C
    C   1.0     0.826302     0.860001     0.392783  Biso 1.000000     C
    C   1.0     0.887607     0.801215     0.392808  Biso 1.000000     C
    C   1.0     0.916303     0.903368     0.593556  Biso 1.000000     C
    C   1.0     0.110042     0.870542     0.488680  Biso 1.000000     C
    C   1.0     0.173614     0.860038     0.607223  Biso 1.000000     C
    C   1.0     0.112283     0.801281     0.607199  Biso 1.000000     C
    C   1.0     0.083647     0.903313     0.406427  Biso 1.000000     C
    C   1.0     0.889894     0.129411     0.488684  Biso 1.000000     C
    C   1.0     0.826292     0.139970     0.607211  Biso 1.000000     C
    C   1.0     0.887616     0.198732     0.607182  Biso 1.000000     C
    C   1.0     0.916315     0.096603     0.406453  Biso 1.000000     C
    C   1.0     0.129405     0.511305     0.110069  Biso 1.000000     C
    C   1.0     0.139949     0.392776     0.173665  Biso 1.000000     C
    C   1.0     0.198710     0.392792     0.112333  Biso 1.000000     C
    C   1.0     0.096608     0.593537     0.083652  Biso 1.000000     C
    C   1.0     0.870545     0.511312     0.889922  Biso 1.000000     C
    C   1.0     0.859992     0.392780     0.826329  Biso 1.000000     C
    C   1.0     0.801232     0.392792     0.887662  Biso 1.000000     C
    C   1.0     0.903336     0.593542     0.916347  Biso 1.000000     C
    C   1.0     0.870547     0.488662     0.110063  Biso 1.000000     C
    C   1.0     0.859996     0.607189     0.173659  Biso 1.000000     C
    C   1.0     0.801241     0.607165     0.112323  Biso 1.000000     C
    C   1.0     0.903345     0.406430     0.083645  Biso 1.000000     C
    C   1.0     0.129391     0.488660     0.889941  Biso 1.000000     C
    C   1.0     0.139926     0.607188     0.826349  Biso 1.000000     C
    C   1.0     0.198698     0.607164     0.887669  Biso 1.000000     C
    C   1.0     0.096599     0.406429     0.916361  Biso 1.000000     C
    C   1.0     0.511295     0.110075     0.129415  Biso 1.000000     C
    C   1.0     0.392753     0.173648     0.139966  Biso 1.000000     C
    C   1.0     0.392771     0.112311     0.198719  Biso 1.000000     C
    C   1.0     0.593519     0.083652     0.096599  Biso 1.000000     C
    C   1.0     0.511296     0.889896     0.870574  Biso 1.000000     C
    C   1.0     0.392732     0.826363     0.860080  Biso 1.000000     C
    C   1.0     0.392780     0.887644     0.801267  Biso 1.000000     C
    C   1.0     0.593512     0.916326     0.903397  Biso 1.000000     C
    C   1.0     0.488648     0.110064     0.870593  Biso 1.000000     C
    C   1.0     0.607194     0.173624     0.860080  Biso 1.000000     C
    C   1.0     0.607157     0.112338     0.801271  Biso 1.000000     C
    C   1.0     0.406429     0.083626     0.903404  Biso 1.000000     C
    C   1.0     0.488667     0.889882     0.129409  Biso 1.000000     C
    C   1.0     0.607192     0.826290     0.139965  Biso 1.000000     C
    C   1.0     0.607161     0.887632     0.198717  Biso 1.000000     C
    C   1.0     0.406438     0.916299     0.096606  Biso 1.000000     C
    N   1.0     0.693200     0.571914     0.968802  Biso 1.000000     N
    N   1.0     0.596936     0.672383     0.967036  Biso 1.000000     N
    N   1.0     0.306738     0.428052     0.968800  Biso 1.000000     N
    N   1.0     0.402996     0.327574     0.967037  Biso 1.000000     N
    N   1.0     0.306737     0.571902     0.031199  Biso 1.000000     N
    N   1.0     0.402978     0.672389     0.032954  Biso 1.000000     N
    N   1.0     0.693217     0.428058     0.031199  Biso 1.000000     N
    N   1.0     0.596962     0.327575     0.032953  Biso 1.000000     N
    N   1.0     0.968756     0.693208     0.571941  Biso 1.000000     N
    N   1.0     0.967001     0.596971     0.672439  Biso 1.000000     N
    N   1.0     0.968749     0.306754     0.428067  Biso 1.000000     N
    N   1.0     0.966998     0.403006     0.327583  Biso 1.000000     N
    N   1.0     0.031191     0.306753     0.571921  Biso 1.000000     N
    N   1.0     0.032966     0.403008     0.672408  Biso 1.000000     N
    N   1.0     0.031194     0.693215     0.428071  Biso 1.000000     N
    N   1.0     0.032961     0.596966     0.327578  Biso 1.000000     N
    N   1.0     0.571907     0.968758     0.693229  Biso 1.000000     N
    N   1.0     0.672386     0.966986     0.596975  Biso 1.000000     N
    N   1.0     0.428046     0.968745     0.306753  Biso 1.000000     N
    N   1.0     0.327566     0.966985     0.403014  Biso 1.000000     N
    N   1.0     0.571897     0.031202     0.306757  Biso 1.000000     N
    N   1.0     0.672375     0.032972     0.403011  Biso 1.000000     N
    N   1.0     0.428059     0.031197     0.693243  Biso 1.000000     N
    N   1.0     0.327556     0.032964     0.596994  Biso 1.000000     N
    N   1.0     0.071913     0.193221     0.468783  Biso 1.000000     N
    N   1.0     0.172409     0.096990     0.467026  Biso 1.000000     N
    N   1.0     0.928010     0.806728     0.468791  Biso 1.000000     N
    N   1.0     0.827541     0.902976     0.467028  Biso 1.000000     N
    N   1.0     0.071893     0.806717     0.531202  Biso 1.000000     N
    N   1.0     0.172366     0.902998     0.532972  Biso 1.000000     N
    N   1.0     0.928030     0.193248     0.531200  Biso 1.000000     N
    N   1.0     0.827556     0.096980     0.532975  Biso 1.000000     N
    N   1.0     0.193227     0.468772     0.071924  Biso 1.000000     N
    N   1.0     0.096979     0.467019     0.172415  Biso 1.000000     N
    N   1.0     0.806723     0.468778     0.928060  Biso 1.000000     N
    N   1.0     0.902957     0.467024     0.827567  Biso 1.000000     N
    N   1.0     0.806715     0.531179     0.071919  Biso 1.000000     N
    N   1.0     0.902975     0.532951     0.172406  Biso 1.000000     N
    N   1.0     0.193224     0.531182     0.928074  Biso 1.000000     N
    N   1.0     0.096959     0.532946     0.827599  Biso 1.000000     N
    N   1.0     0.468756     0.071914     0.193223  Biso 1.000000     N
    N   1.0     0.467005     0.172425     0.097007  Biso 1.000000     N
    N   1.0     0.468754     0.928057     0.806767  Biso 1.000000     N
    N   1.0     0.466995     0.827573     0.903017  Biso 1.000000     N
    N   1.0     0.531188     0.071915     0.806774  Biso 1.000000     N
    N   1.0     0.532939     0.172395     0.903032  Biso 1.000000     N
    N   1.0     0.531177     0.928037     0.193239  Biso 1.000000     N
    N   1.0     0.532959     0.827542     0.096978  Biso 1.000000     N
