#======================================================================

# CRYSTAL DATA

#----------------------------------------------------------------------

data_VESTA_phase_1


_pd_phase_name                         MOF
_cell_length_a                         22.83600
_cell_length_b                         14.15000
_cell_length_c                         18.34000
_cell_angle_alpha                      89.96000
_cell_angle_beta                       90.00900
_cell_angle_gamma                      99.76200
_symmetry_space_group_name_H-M         "P 1"
_symmetry_Int_Tables_number            1

loop_
_symmetry_equiv_pos_as_xyz
   "x, y, z"

loop_
   _atom_site_label
   _atom_site_occupancy
   _atom_site_fract_x
   _atom_site_fract_y
   _atom_site_fract_z
   _atom_site_adp_type
   _atom_site_B_iso_or_equiv
   _atom_site_type_symbol
    H   1.0     0.089953     0.742440     0.412020  Biso 1.000000     H
    H   1.0     0.589949     0.742445     0.412021  Biso 1.000000     H
    H   1.0    -0.046466     0.445687     0.744944  Biso 1.000000     H
    H   1.0     0.453530     0.445687     0.744941  Biso 1.000000     H
    H   1.0    -0.007842     0.512571     0.689168  Biso 1.000000     H
    H   1.0     0.492156     0.512572     0.689167  Biso 1.000000     H
    H   1.0     0.356402     0.724449     0.668468  Biso 1.000000     H
    H   1.0     0.856398     0.724447     0.668468  Biso 1.000000     H
    H   1.0     0.160950     0.752863     0.912789  Biso 1.000000     H
    H   1.0     0.660946     0.752860     0.912785  Biso 1.000000     H
    H   1.0     0.297038     0.000000     0.243695  Biso 1.000000     H
    H   1.0     0.797034     0.000000     0.243692  Biso 1.000000     H
    H   1.0     0.257653     0.989158     0.188848  Biso 1.000000     H
    H   1.0     0.757648     0.989157     0.188847  Biso 1.000000     H
    H   1.0     0.393564     0.776000     0.169048  Biso 1.000000     H
    H   1.0     0.893558     0.775994     0.169043  Biso 1.000000     H
    H   1.0     0.410050     0.257592     0.587960  Biso 1.000000     H
    H   1.0     0.910046     0.257595     0.587960  Biso 1.000000     H
    H   1.0     0.546476     0.554340     0.255046  Biso 1.000000     H
    H   1.0     0.000000     0.554339     0.255043  Biso 1.000000     H
    H   1.0     0.507846     0.487448     0.310812  Biso 1.000000     H
    H   1.0     0.000000     0.487449     0.310811  Biso 1.000000     H
    H   1.0     0.143604     0.275570     0.331507  Biso 1.000000     H
    H   1.0     0.643600     0.275567     0.331509  Biso 1.000000     H
    H   1.0     0.339052     0.247159     0.087177  Biso 1.000000     H
    H   1.0     0.839047     0.247157     0.087173  Biso 1.000000     H
    H   1.0     0.202970    -0.056309     0.756275  Biso 1.000000     H
    H   1.0     0.702966    -0.056310     0.756273  Biso 1.000000     H
    H   1.0     0.242348     0.010864     0.811124  Biso 1.000000     H
    H   1.0     0.742344     0.010863     0.811123  Biso 1.000000     H
    H   1.0     0.106441     0.224040     0.830953  Biso 1.000000     H
    H   1.0     0.606435     0.224034     0.830948  Biso 1.000000     H
    C   1.0     0.045847     0.713184     0.431884  Biso 1.000000     C
    C   1.0     0.545843     0.713187     0.431884  Biso 1.000000     C
    C   1.0     0.185698     0.596496     0.552602  Biso 1.000000     C
    C   1.0     0.685694     0.596496     0.552602  Biso 1.000000     C
    C   1.0     0.309297     0.712818     0.655922  Biso 1.000000     C
    C   1.0     0.809293     0.712816     0.655922  Biso 1.000000     C
    C   1.0     0.214143     0.718084     0.662567  Biso 1.000000     C
    C   1.0     0.714139     0.718082     0.662567  Biso 1.000000     C
    C   1.0     0.162216     0.752729     0.696382  Biso 1.000000     C
    C   1.0     0.662212     0.752729     0.696381  Biso 1.000000     C
    C   1.0     0.223958     0.659237     0.604027  Biso 1.000000     C
    C   1.0     0.723954     0.659237     0.604026  Biso 1.000000     C
    C   1.0     0.450148     0.659001     0.433156  Biso 1.000000     C
    C   1.0     0.950146     0.659000     0.433156  Biso 1.000000     C
    C   1.0     0.450271     0.602229     0.571954  Biso 1.000000     C
    C   1.0     0.950268     0.602229     0.571954  Biso 1.000000     C
    C   1.0     0.472492     0.650701     0.503458  Biso 1.000000     C
    C   1.0     0.972489     0.650699     0.503458  Biso 1.000000     C
    C   1.0     0.391911     0.636199     0.394584  Biso 1.000000     C
    C   1.0     0.891908     0.636199     0.394583  Biso 1.000000     C
    C   1.0     0.204862     0.783578     0.932462  Biso 1.000000     C
    C   1.0     0.704857     0.783576     0.932460  Biso 1.000000     C
    C   1.0     0.063830     0.901786     0.051163  Biso 1.000000     C
    C   1.0     0.563829     0.901783     0.051166  Biso 1.000000     C
    C   1.0     0.440589     0.787156     0.156077  Biso 1.000000     C
    C   1.0     0.940584     0.787156     0.156075  Biso 1.000000     C
    C   1.0     0.035637     0.780756     0.161840  Biso 1.000000     C
    C   1.0     0.535634     0.780739     0.161833  Biso 1.000000     C
    C   1.0     0.087500     0.745633     0.195466  Biso 1.000000     C
    C   1.0     0.587494     0.745594     0.195449  Biso 1.000000     C
    C   1.0     0.025748     0.839883     0.103390  Biso 1.000000     C
    C   1.0     0.525746     0.839872     0.103387  Biso 1.000000     C
    C   1.0     0.300188     0.840551     0.933415  Biso 1.000000     C
    C   1.0     0.800183     0.840548     0.933415  Biso 1.000000     C
    C   1.0     0.299510     0.898687     0.071836  Biso 1.000000     C
    C   1.0     0.799501     0.898686     0.071835  Biso 1.000000     C
    C   1.0     0.277745     0.848794     0.003694  Biso 1.000000     C
    C   1.0     0.777739     0.848796     0.003692  Biso 1.000000     C
    C   1.0     0.358231     0.865090     0.894660  Biso 1.000000     C
    C   1.0     0.858227     0.865089     0.894661  Biso 1.000000     C
    C   1.0     0.454157     0.286844     0.568095  Biso 1.000000     C
    C   1.0     0.954153     0.286847     0.568095  Biso 1.000000     C
    C   1.0     0.314307     0.403526     0.447373  Biso 1.000000     C
    C   1.0     0.814304     0.403526     0.447372  Biso 1.000000     C
    C   1.0     0.190709     0.287202     0.344054  Biso 1.000000     C
    C   1.0     0.690705     0.287200     0.344054  Biso 1.000000     C
    C   1.0     0.285863     0.281937     0.337408  Biso 1.000000     C
    C   1.0     0.785859     0.281937     0.337408  Biso 1.000000     C
    C   1.0     0.337790     0.247293     0.303593  Biso 1.000000     C
    C   1.0     0.837786     0.247294     0.303592  Biso 1.000000     C
    C   1.0     0.276048     0.340784     0.395949  Biso 1.000000     C
    C   1.0     0.776044     0.340784     0.395948  Biso 1.000000     C
    C   1.0     0.049855     0.341025     0.566822  Biso 1.000000     C
    C   1.0     0.549852     0.341024     0.566822  Biso 1.000000     C
    C   1.0     0.049733     0.397792     0.428023  Biso 1.000000     C
    C   1.0     0.549730     0.397792     0.428023  Biso 1.000000     C
    C   1.0     0.027511     0.349325     0.496520  Biso 1.000000     C
    C   1.0     0.527509     0.349325     0.496520  Biso 1.000000     C
    C   1.0     0.108093     0.363824     0.605394  Biso 1.000000     C
    C   1.0     0.608090     0.363824     0.605394  Biso 1.000000     C
    C   1.0     0.295139     0.216444     0.067507  Biso 1.000000     C
    C   1.0     0.795133     0.216443     0.067504  Biso 1.000000     C
    C   1.0     0.436166     0.098234     0.948817  Biso 1.000000     C
    C   1.0     0.936165     0.098229     0.948821  Biso 1.000000     C
    C   1.0     0.059414     0.212870     0.843914  Biso 1.000000     C
    C   1.0     0.559408     0.212870     0.843911  Biso 1.000000     C
    C   1.0     0.464361     0.219253     0.838132  Biso 1.000000     C
    C   1.0     0.964358     0.219233     0.838125  Biso 1.000000     C
    C   1.0     0.412497     0.254360     0.804496  Biso 1.000000     C
    C   1.0     0.912490     0.254308     0.804474  Biso 1.000000     C
    C   1.0     0.474248     0.160137     0.896589  Biso 1.000000     C
    C   1.0     0.974246     0.160124     0.896586  Biso 1.000000     C
    C   1.0     0.199813     0.159475     0.066561  Biso 1.000000     C
    C   1.0     0.699808     0.159473     0.066560  Biso 1.000000     C
    C   1.0     0.200484     0.101332     0.928140  Biso 1.000000     C
    C   1.0     0.700474     0.101332     0.928140  Biso 1.000000     C
    C   1.0     0.222251     0.151225     0.996281  Biso 1.000000     C
    C   1.0     0.722244     0.151228     0.996279  Biso 1.000000     C
    C   1.0     0.141772     0.134935     0.105320  Biso 1.000000     C
    C   1.0     0.641767     0.134934     0.105321  Biso 1.000000     C
    N   1.0     0.032857     0.686606     0.500974  Biso 1.000000     N
    N   1.0     0.532853     0.686609     0.500975  Biso 1.000000     N
    N   1.0     0.284323     0.657264     0.601046  Biso 1.000000     N
    N   1.0     0.784319     0.657264     0.601046  Biso 1.000000     N
    N   1.0     0.268829     0.751103     0.694132  Biso 1.000000     N
    N   1.0     0.768826     0.751102     0.694132  Biso 1.000000     N
    N   1.0     0.497293     0.697526     0.389460  Biso 1.000000     N
    N   1.0     0.997291     0.697524     0.389460  Biso 1.000000     N
    N   1.0     0.217630     0.811137     0.001398  Biso 1.000000     N
    N   1.0     0.717623     0.811137     0.001395  Biso 1.000000     N
    N   1.0     0.465444     0.842639     0.101024  Biso 1.000000     N
    N   1.0     0.965438     0.842640     0.101023  Biso 1.000000     N
    N   1.0     0.481042     0.748210     0.193856  Biso 1.000000     N
    N   1.0     0.981038     0.748218     0.193858  Biso 1.000000     N
    N   1.0     0.253325     0.800312     0.889924  Biso 1.000000     N
    N   1.0     0.753321     0.800310     0.889923  Biso 1.000000     N
    N   1.0     0.467147     0.313420     0.499004  Biso 1.000000     N
    N   1.0     0.967143     0.313421     0.499004  Biso 1.000000     N
    N   1.0     0.215683     0.342755     0.398929  Biso 1.000000     N
    N   1.0     0.715679     0.342754     0.398930  Biso 1.000000     N
    N   1.0     0.231177     0.248919     0.305843  Biso 1.000000     N
    N   1.0     0.731173     0.248917     0.305843  Biso 1.000000     N
    N   1.0     0.002709     0.302505     0.610518  Biso 1.000000     N
    N   1.0     0.502707     0.302503     0.610518  Biso 1.000000     N
    N   1.0     0.282367     0.188884     0.998572  Biso 1.000000     N
    N   1.0     0.782360     0.188886     0.998568  Biso 1.000000     N
    N   1.0     0.034558     0.157387     0.898966  Biso 1.000000     N
    N   1.0     0.534552     0.157388     0.898964  Biso 1.000000     N
    N   1.0     0.018959     0.251791     0.806120  Biso 1.000000     N
    N   1.0     0.518954     0.251799     0.806122  Biso 1.000000     N
    N   1.0     0.246679     0.199712     0.110049  Biso 1.000000     N
    N   1.0     0.746674     0.199711     0.110047  Biso 1.000000     N
    O   1.0     0.129547     0.575947     0.559472  Biso 1.000000     O
    O   1.0     0.629543     0.575947     0.559472  Biso 1.000000     O
    O   1.0     0.213065     0.559339     0.502066  Biso 1.000000     O
    O   1.0     0.713061     0.559339     0.502065  Biso 1.000000     O
    O   1.0     0.172282     0.798330     0.755447  Biso 1.000000     O
    O   1.0     0.672278     0.798330     0.755446  Biso 1.000000     O
    O   1.0     0.110600     0.740398     0.666528  Biso 1.000000     O
    O   1.0     0.610597     0.740400     0.666526  Biso 1.000000     O
    O   1.0    -0.004966     0.469075     0.731630  Biso 1.000000     O
    O   1.0     0.495031     0.469075     0.731629  Biso 1.000000     O
    O   1.0    -0.008897     0.591777     0.619357  Biso 1.000000     O
    O   1.0     0.491100     0.591777     0.619356  Biso 1.000000     O
    O   1.0     0.396050     0.571522     0.584395  Biso 1.000000     O
    O   1.0     0.896047     0.571522     0.584395  Biso 1.000000     O
    O   1.0     0.342660     0.625284     0.428831  Biso 1.000000     O
    O   1.0     0.842657     0.625284     0.428831  Biso 1.000000     O
    O   1.0     0.394558     0.633125     0.325187  Biso 1.000000     O
    O   1.0     0.894555     0.633125     0.325186  Biso 1.000000     O
    O   1.0     0.120095     0.921390     0.056878  Biso 1.000000     O
    O   1.0     0.620094     0.921389     0.056887  Biso 1.000000     O
    O   1.0     0.036171     0.939265     0.000967  Biso 1.000000     O
    O   1.0     0.536172     0.939267     0.000972  Biso 1.000000     O
    O   1.0     0.077368     0.699282     0.254223  Biso 1.000000     O
    O   1.0     0.577366     0.699271     0.254219  Biso 1.000000     O
    O   1.0     0.139255     0.758338     0.166015  Biso 1.000000     O
    O   1.0     0.639240     0.758247     0.165975  Biso 1.000000     O
    O   1.0     0.255357     0.000000     0.231279  Biso 1.000000     O
    O   1.0     0.755353     0.000000     0.231278  Biso 1.000000     O
    O   1.0     0.258370     0.909530     0.118727  Biso 1.000000     O
    O   1.0     0.758361     0.909524     0.118728  Biso 1.000000     O
    O   1.0     0.353636     0.930139     0.084342  Biso 1.000000     O
    O   1.0     0.853627     0.930137     0.084343  Biso 1.000000     O
    O   1.0     0.407555     0.877250     0.928767  Biso 1.000000     O
    O   1.0     0.907551     0.877254     0.928768  Biso 1.000000     O
    O   1.0     0.355401     0.868466     0.825272  Biso 1.000000     O
    O   1.0     0.855397     0.868468     0.825273  Biso 1.000000     O
    O   1.0     0.370458     0.424075     0.440503  Biso 1.000000     O
    O   1.0     0.870455     0.424075     0.440503  Biso 1.000000     O
    O   1.0     0.286940     0.440680     0.497911  Biso 1.000000     O
    O   1.0     0.786936     0.440680     0.497910  Biso 1.000000     O
    O   1.0     0.327725     0.201695     0.244526  Biso 1.000000     O
    O   1.0     0.827721     0.201696     0.244525  Biso 1.000000     O
    O   1.0     0.389406     0.259625     0.333447  Biso 1.000000     O
    O   1.0     0.889403     0.259627     0.333445  Biso 1.000000     O
    O   1.0     0.504974     0.530948     0.268350  Biso 1.000000     O
    O   1.0     0.000000     0.530949     0.268349  Biso 1.000000     O
    O   1.0     0.508901     0.408243     0.380620  Biso 1.000000     O
    O   1.0     0.000000     0.408243     0.380620  Biso 1.000000     O
    O   1.0     0.103954     0.428498     0.415582  Biso 1.000000     O
    O   1.0     0.603951     0.428498     0.415581  Biso 1.000000     O
    O   1.0     0.157344     0.374738     0.571146  Biso 1.000000     O
    O   1.0     0.657341     0.374739     0.571146  Biso 1.000000     O
    O   1.0     0.105446     0.366895     0.674791  Biso 1.000000     O
    O   1.0     0.605444     0.366896     0.674791  Biso 1.000000     O
    O   1.0     0.379902     0.078628     0.943101  Biso 1.000000     O
    O   1.0     0.879901     0.078625     0.943113  Biso 1.000000     O
    O   1.0     0.463825     0.060754     0.999013  Biso 1.000000     O
    O   1.0     0.963827     0.060755     0.999017  Biso 1.000000     O
    O   1.0     0.422636     0.300740     0.745752  Biso 1.000000     O
    O   1.0     0.922634     0.300730     0.745749  Biso 1.000000     O
    O   1.0     0.360734     0.241614     0.833925  Biso 1.000000     O
    O   1.0     0.860713     0.241479     0.833866  Biso 1.000000     O
    O   1.0     0.244649    -0.032833     0.768694  Biso 1.000000     O
    O   1.0     0.744646    -0.032834     0.768693  Biso 1.000000     O
    O   1.0     0.241621     0.090492     0.881246  Biso 1.000000     O
    O   1.0     0.741610     0.090483     0.881248  Biso 1.000000     O
    O   1.0     0.146357     0.069885     0.915634  Biso 1.000000     O
    O   1.0     0.646347     0.069883     0.915636  Biso 1.000000     O
    O   1.0     0.092446     0.122770     0.071216  Biso 1.000000     O
    O   1.0     0.592441     0.122774     0.071217  Biso 1.000000     O
    O   1.0     0.144606     0.131554     0.174707  Biso 1.000000     O
    O   1.0     0.644602     0.131557     0.174708  Biso 1.000000     O
   Zn   1.0     0.074298     0.658823     0.590709  Biso 1.000000    Zn
   Zn   1.0     0.574295     0.658823     0.590708  Biso 1.000000    Zn
   Zn   1.0     0.320012     0.578991     0.527744  Biso 1.000000    Zn
   Zn   1.0     0.820009     0.578991     0.527744  Biso 1.000000    Zn
   Zn   1.0     0.269581     0.831346     0.784169  Biso 1.000000    Zn
   Zn   1.0     0.769578     0.831346     0.784169  Biso 1.000000    Zn
   Zn   1.0     0.175590     0.839803     0.090373  Biso 1.000000    Zn
   Zn   1.0     0.675584     0.839791     0.090375  Biso 1.000000    Zn
   Zn   1.0     0.429997     0.922229     0.028050  Biso 1.000000    Zn
   Zn   1.0     0.929992     0.922231     0.028051  Biso 1.000000    Zn
   Zn   1.0     0.480451     0.667043     0.283798  Biso 1.000000    Zn
   Zn   1.0     0.980448     0.667044     0.283797  Biso 1.000000    Zn
   Zn   1.0     0.425706     0.341200     0.409267  Biso 1.000000    Zn
   Zn   1.0     0.925703     0.341200     0.409267  Biso 1.000000    Zn
   Zn   1.0     0.179993     0.421027     0.472233  Biso 1.000000    Zn
   Zn   1.0     0.679990     0.421027     0.472232  Biso 1.000000    Zn
   Zn   1.0     0.230426     0.168678     0.215805  Biso 1.000000    Zn
   Zn   1.0     0.730423     0.168678     0.215805  Biso 1.000000    Zn
   Zn   1.0     0.324404     0.160212     0.909600  Biso 1.000000    Zn
   Zn   1.0     0.824396     0.160195     0.909603  Biso 1.000000    Zn
   Zn   1.0     0.070006     0.077794     0.971931  Biso 1.000000    Zn
   Zn   1.0     0.570001     0.077796     0.971932  Biso 1.000000    Zn
   Zn   1.0     0.019553     0.332977     0.716183  Biso 1.000000    Zn
   Zn   1.0     0.519550     0.332978     0.716182  Biso 1.000000    Zn
