#======================================================================

# CRYSTAL DATA

#----------------------------------------------------------------------

data_VESTA_phase_1


_pd_phase_name                         MOF
_cell_length_a                         15.70300
_cell_length_b                         21.47700
_cell_length_c                         14.19300
_cell_angle_alpha                      112.22900
_cell_angle_beta                       90.00000
_cell_angle_gamma                      90.00000
_symmetry_space_group_name_H-M         "P 1"
_symmetry_Int_Tables_number            1

loop_
_symmetry_equiv_pos_as_xyz
   "x, y, z"

loop_
   _atom_site_label
   _atom_site_occupancy
   _atom_site_fract_x
   _atom_site_fract_y
   _atom_site_fract_z
   _atom_site_adp_type
   _atom_site_B_iso_or_equiv
   _atom_site_type_symbol
    H   1.0     0.539552     0.396362     0.163494  Biso 1.000000     H
    H   1.0     0.539567     0.892550     0.163528  Biso 1.000000     H
    H   1.0     0.000000     0.396362     0.163494  Biso 1.000000     H
    H   1.0     0.000000     0.892550     0.163528  Biso 1.000000     H
    H   1.0     0.278588     0.370550     0.095041  Biso 1.000000     H
    H   1.0     0.278626     0.866663     0.094976  Biso 1.000000     H
    H   1.0     0.806596     0.370550     0.095041  Biso 1.000000     H
    H   1.0     0.806634     0.866663     0.094976  Biso 1.000000     H
    H   1.0     0.282599     0.186137     0.302632  Biso 1.000000     H
    H   1.0     0.282714     0.682221     0.302656  Biso 1.000000     H
    H   1.0     0.810607     0.186137     0.302632  Biso 1.000000     H
    H   1.0     0.810722     0.682221     0.302656  Biso 1.000000     H
    H   1.0     0.378622     0.254337     0.600141  Biso 1.000000     H
    H   1.0     0.378625     0.750559     0.600221  Biso 1.000000     H
    H   1.0     0.906629     0.254337     0.600141  Biso 1.000000     H
    H   1.0     0.906633     0.750559     0.600221  Biso 1.000000     H
    H   1.0     0.275570     0.110869     0.871420  Biso 1.000000     H
    H   1.0     0.275561     0.607058     0.871452  Biso 1.000000     H
    H   1.0     0.803578     0.110869     0.871420  Biso 1.000000     H
    H   1.0     0.803569     0.607058     0.871452  Biso 1.000000     H
    H   1.0     0.014629     0.136748     0.939971  Biso 1.000000     H
    H   1.0     0.014595     0.632857     0.939896  Biso 1.000000     H
    H   1.0     0.542637     0.136748     0.939971  Biso 1.000000     H
    H   1.0     0.542603     0.632857     0.939896  Biso 1.000000     H
    H   1.0     0.018694     0.321190     0.732288  Biso 1.000000     H
    H   1.0     0.018593     0.817275     0.732308  Biso 1.000000     H
    H   1.0     0.546702     0.321190     0.732288  Biso 1.000000     H
    H   1.0     0.546601     0.817275     0.732308  Biso 1.000000     H
    H   1.0     0.114621     0.252856     0.434731  Biso 1.000000     H
    H   1.0     0.114625     0.749082     0.434805  Biso 1.000000     H
    H   1.0     0.642629     0.252856     0.434731  Biso 1.000000     H
    H   1.0     0.642633     0.749082     0.434804  Biso 1.000000     H
    H   1.0     0.275605     0.325947     0.870792  Biso 1.000000     H
    H   1.0     0.275600     0.822055     0.870874  Biso 1.000000     H
    H   1.0     0.803613     0.325947     0.870792  Biso 1.000000     H
    H   1.0     0.803608     0.822055     0.870874  Biso 1.000000     H
    H   1.0     0.014872     0.334051     0.940256  Biso 1.000000     H
    H   1.0     0.014851     0.830178     0.940269  Biso 1.000000     H
    H   1.0     0.542880     0.334050     0.940256  Biso 1.000000     H
    H   1.0     0.542859     0.830178     0.940269  Biso 1.000000     H
    H   1.0     0.017436     0.046217     0.732221  Biso 1.000000     H
    H   1.0     0.017280     0.542376     0.732148  Biso 1.000000     H
    H   1.0     0.545444     0.046217     0.732221  Biso 1.000000     H
    H   1.0     0.545288     0.542376     0.732148  Biso 1.000000     H
    H   1.0     0.115417     0.461128     0.435690  Biso 1.000000     H
    H   1.0     0.115668     0.957135     0.435810  Biso 1.000000     H
    H   1.0     0.643425     0.461128     0.435690  Biso 1.000000     H
    H   1.0     0.643676     0.957135     0.435810  Biso 1.000000     H
    H   1.0     0.539590     0.181358     0.164057  Biso 1.000000     H
    H   1.0     0.539596     0.677462     0.164159  Biso 1.000000     H
    H   1.0     0.000000     0.181358     0.164057  Biso 1.000000     H
    H   1.0     0.000000     0.677462     0.164159  Biso 1.000000     H
    H   1.0     0.278840     0.173246     0.094669  Biso 1.000000     H
    H   1.0     0.278863     0.669369     0.094692  Biso 1.000000     H
    H   1.0     0.806848     0.173246     0.094669  Biso 1.000000     H
    H   1.0     0.806871     0.669369     0.094692  Biso 1.000000     H
    H   1.0     0.281287     0.461042     0.302795  Biso 1.000000     H
    H   1.0     0.281443     0.957200     0.302729  Biso 1.000000     H
    H   1.0     0.809295     0.461042     0.302795  Biso 1.000000     H
    H   1.0     0.809451     0.957200     0.302729  Biso 1.000000     H
    H   1.0     0.379671     0.046283     0.599136  Biso 1.000000     H
    H   1.0     0.379427     0.542291     0.599253  Biso 1.000000     H
    H   1.0     0.907679     0.046283     0.599136  Biso 1.000000     H
    H   1.0     0.907435     0.542291     0.599253  Biso 1.000000     H
    H   1.0     0.310839     0.061131     0.244278  Biso 1.000000     H
    H   1.0     0.310856     0.557215     0.244294  Biso 1.000000     H
    H   1.0     0.838847     0.061131     0.244278  Biso 1.000000     H
    H   1.0     0.838864     0.557215     0.244294  Biso 1.000000     H
    H   1.0     0.047414     0.074700     0.298421  Biso 1.000000     H
    H   1.0     0.047432     0.570898     0.298441  Biso 1.000000     H
    H   1.0     0.575422     0.074700     0.298421  Biso 1.000000     H
    H   1.0     0.575440     0.570898     0.298441  Biso 1.000000     H
    H   1.0     0.046864     0.446198     0.790645  Biso 1.000000     H
    H   1.0     0.046850     0.942283     0.790661  Biso 1.000000     H
    H   1.0     0.574872     0.446198     0.790645  Biso 1.000000     H
    H   1.0     0.574858     0.942283     0.790661  Biso 1.000000     H
    H   1.0     0.311446     0.432522     0.736513  Biso 1.000000     H
    H   1.0     0.311430     0.928722     0.736541  Biso 1.000000     H
    H   1.0     0.839454     0.432522     0.736513  Biso 1.000000     H
    H   1.0     0.839438     0.928722     0.736541  Biso 1.000000     H
    C   1.0     0.476652     0.400030     0.134222  Biso 1.000000     C
    C   1.0     0.476668     0.896213     0.134250  Biso 1.000000     C
    C   1.0     0.000000     0.400030     0.134222  Biso 1.000000     C
    C   1.0     0.000000     0.896213     0.134250  Biso 1.000000     C
    C   1.0     0.344433     0.386884     0.100176  Biso 1.000000     C
    C   1.0     0.344460     0.883031     0.100163  Biso 1.000000     C
    C   1.0     0.872441     0.386884     0.100176  Biso 1.000000     C
    C   1.0     0.872468     0.883031     0.100163  Biso 1.000000     C
    C   1.0     0.315910     0.215141     0.372289  Biso 1.000000     C
    C   1.0     0.315996     0.711257     0.372318  Biso 1.000000     C
    C   1.0     0.843918     0.215141     0.372289  Biso 1.000000     C
    C   1.0     0.844004     0.711257     0.372318  Biso 1.000000     C
    C   1.0     0.364879     0.250041     0.523011  Biso 1.000000     C
    C   1.0     0.364904     0.746226     0.523069  Biso 1.000000     C
    C   1.0     0.892887     0.250041     0.523011  Biso 1.000000     C
    C   1.0     0.892912     0.746226     0.523069  Biso 1.000000     C
    C   1.0     0.212672     0.107204     0.900698  Biso 1.000000     C
    C   1.0     0.212661     0.603387     0.900723  Biso 1.000000     C
    C   1.0     0.740680     0.107204     0.900698  Biso 1.000000     C
    C   1.0     0.740669     0.603387     0.900723  Biso 1.000000     C
    C   1.0     0.080463     0.120382     0.934785  Biso 1.000000     C
    C   1.0     0.080441     0.616527     0.934764  Biso 1.000000     C
    C   1.0     0.608471     0.120382     0.934785  Biso 1.000000     C
    C   1.0     0.608449     0.616527     0.934764  Biso 1.000000     C
    C   1.0     0.051980     0.292155     0.662628  Biso 1.000000     C
    C   1.0     0.051907     0.788273     0.662653  Biso 1.000000     C
    C   1.0     0.579989     0.292155     0.662628  Biso 1.000000     C
    C   1.0     0.579915     0.788273     0.662653  Biso 1.000000     C
    C   1.0     0.100896     0.257188     0.511881  Biso 1.000000     C
    C   1.0     0.100881     0.753376     0.511933  Biso 1.000000     C
    C   1.0     0.628904     0.257188     0.511881  Biso 1.000000     C
    C   1.0     0.628889     0.753376     0.511933  Biso 1.000000     C
    C   1.0     0.212735     0.344169     0.900288  Biso 1.000000     C
    C   1.0     0.212733     0.840277     0.900388  Biso 1.000000     C
    C   1.0     0.740743     0.344169     0.900288  Biso 1.000000     C
    C   1.0     0.740741     0.840277     0.900388  Biso 1.000000     C
    C   1.0     0.080644     0.347891     0.934871  Biso 1.000000     C
    C   1.0     0.080629     0.844012     0.934909  Biso 1.000000     C
    C   1.0     0.608652     0.347891     0.934871  Biso 1.000000     C
    C   1.0     0.608637     0.844012     0.934909  Biso 1.000000     C
    C   1.0     0.051292     0.040195     0.662820  Biso 1.000000     C
    C   1.0     0.051116     0.536382     0.662746  Biso 1.000000     C
    C   1.0     0.579300     0.040195     0.662820  Biso 1.000000     C
    C   1.0     0.579124     0.536382     0.662746  Biso 1.000000     C
    C   1.0     0.101133     0.495563     0.512552  Biso 1.000000     C
    C   1.0     0.101372     0.991585     0.512660  Biso 1.000000     C
    C   1.0     0.629141     0.495563     0.512552  Biso 1.000000     C
    C   1.0     0.629380     0.991585     0.512660  Biso 1.000000     C
    C   1.0     0.476721     0.163139     0.134545  Biso 1.000000     C
    C   1.0     0.476725     0.659243     0.134662  Biso 1.000000     C
    C   1.0     0.000000     0.163139     0.134545  Biso 1.000000     C
    C   1.0     0.000000     0.659243     0.134662  Biso 1.000000     C
    C   1.0     0.344618     0.159409     0.100028  Biso 1.000000     C
    C   1.0     0.344635     0.655526     0.100078  Biso 1.000000     C
    C   1.0     0.872626     0.159409     0.100028  Biso 1.000000     C
    C   1.0     0.872642     0.655526     0.100078  Biso 1.000000     C
    C   1.0     0.315123     0.467036     0.372198  Biso 1.000000     C
    C   1.0     0.315300     0.963221     0.372129  Biso 1.000000     C
    C   1.0     0.843131     0.467036     0.372198  Biso 1.000000     C
    C   1.0     0.843308     0.963221     0.372129  Biso 1.000000     C
    C   1.0     0.365373     0.011832     0.522288  Biso 1.000000     C
    C   1.0     0.365141     0.507856     0.522391  Biso 1.000000     C
    C   1.0     0.893381     0.011832     0.522288  Biso 1.000000     C
    C   1.0     0.893149     0.507856     0.522391  Biso 1.000000     C
    C   1.0     0.242273     0.058515     0.233811  Biso 1.000000     C
    C   1.0     0.242290     0.554618     0.233828  Biso 1.000000     C
    C   1.0     0.770281     0.058515     0.233811  Biso 1.000000     C
    C   1.0     0.770298     0.554618     0.233828  Biso 1.000000     C
    C   1.0     0.109109     0.065367     0.261121  Biso 1.000000     C
    C   1.0     0.109127     0.561522     0.261139  Biso 1.000000     C
    C   1.0     0.637117     0.065367     0.261121  Biso 1.000000     C
    C   1.0     0.637134     0.561522     0.261139  Biso 1.000000     C
    C   1.0     0.506306     0.448795     0.801116  Biso 1.000000     C
    C   1.0     0.506293     0.944900     0.801133  Biso 1.000000     C
    C   1.0     0.000000     0.448795     0.801116  Biso 1.000000     C
    C   1.0     0.000000     0.944900     0.801133  Biso 1.000000     C
    C   1.0     0.373142     0.441896     0.773811  Biso 1.000000     C
    C   1.0     0.373127     0.938051     0.773835  Biso 1.000000     C
    C   1.0     0.901150     0.441896     0.773811  Biso 1.000000     C
    C   1.0     0.901135     0.938051     0.773835  Biso 1.000000     C
    N   1.0     0.458421     0.438182     0.081330  Biso 1.000000     N
    N   1.0     0.458403     0.934447     0.081494  Biso 1.000000     N
    N   1.0     0.986429     0.438182     0.081330  Biso 1.000000     N
    N   1.0     0.986411     0.934447     0.081494  Biso 1.000000     N
    N   1.0     0.372542     0.429766     0.059259  Biso 1.000000     N
    N   1.0     0.372536     0.925992     0.059377  Biso 1.000000     N
    N   1.0     0.900550     0.429766     0.059259  Biso 1.000000     N
    N   1.0     0.900544     0.925992     0.059377  Biso 1.000000     N
    N   1.0     0.407270     0.366618     0.147929  Biso 1.000000     N
    N   1.0     0.407311     0.862744     0.147873  Biso 1.000000     N
    N   1.0     0.935278     0.366618     0.147929  Biso 1.000000     N
    N   1.0     0.935319     0.862744     0.147873  Biso 1.000000     N
    N   1.0     0.361971     0.269706     0.383919  Biso 1.000000     N
    N   1.0     0.361965     0.765870     0.383955  Biso 1.000000     N
    N   1.0     0.889979     0.269706     0.383919  Biso 1.000000     N
    N   1.0     0.889973     0.765870     0.383955  Biso 1.000000     N
    N   1.0     0.393683     0.292487     0.481698  Biso 1.000000     N
    N   1.0     0.393623     0.788700     0.481761  Biso 1.000000     N
    N   1.0     0.921690     0.292487     0.481698  Biso 1.000000     N
    N   1.0     0.921631     0.788700     0.481761  Biso 1.000000     N
    N   1.0     0.315783     0.200539     0.457232  Biso 1.000000     N
    N   1.0     0.315877     0.696674     0.457281  Biso 1.000000     N
    N   1.0     0.843791     0.200539     0.457232  Biso 1.000000     N
    N   1.0     0.843885     0.696674     0.457281  Biso 1.000000     N
    N   1.0     0.194411     0.068971     0.953456  Biso 1.000000     N
    N   1.0     0.194433     0.565236     0.953617  Biso 1.000000     N
    N   1.0     0.722419     0.068971     0.953456  Biso 1.000000     N
    N   1.0     0.722441     0.565236     0.953617  Biso 1.000000     N
    N   1.0     0.108543     0.077423     0.975573  Biso 1.000000     N
    N   1.0     0.108553     0.573648     0.975684  Biso 1.000000     N
    N   1.0     0.636551     0.077423     0.975573  Biso 1.000000     N
    N   1.0     0.636561     0.573648     0.975684  Biso 1.000000     N
    N   1.0     0.143312     0.140670     0.887074  Biso 1.000000     N
    N   1.0     0.143277     0.636795     0.887012  Biso 1.000000     N
    N   1.0     0.671320     0.140670     0.887074  Biso 1.000000     N
    N   1.0     0.671285     0.636795     0.887012  Biso 1.000000     N
    N   1.0     0.097951     0.237543     0.650995  Biso 1.000000     N
    N   1.0     0.097970     0.733708     0.651023  Biso 1.000000     N
    N   1.0     0.625959     0.237543     0.650995  Biso 1.000000     N
    N   1.0     0.625978     0.733708     0.651023  Biso 1.000000     N
    N   1.0     0.129614     0.214715     0.553191  Biso 1.000000     N
    N   1.0     0.129684     0.710930     0.553246  Biso 1.000000     N
    N   1.0     0.657622     0.214715     0.553191  Biso 1.000000     N
    N   1.0     0.657692     0.710930     0.553246  Biso 1.000000     N
    N   1.0     0.051865     0.306739     0.577666  Biso 1.000000     N
    N   1.0     0.051783     0.802877     0.577712  Biso 1.000000     N
    N   1.0     0.579873     0.306739     0.577666  Biso 1.000000     N
    N   1.0     0.579791     0.802877     0.577712  Biso 1.000000     N
    N   1.0     0.194445     0.408749     0.953222  Biso 1.000000     N
    N   1.0     0.194459     0.904850     0.953377  Biso 1.000000     N
    N   1.0     0.722453     0.408749     0.953222  Biso 1.000000     N
    N   1.0     0.722467     0.904850     0.953377  Biso 1.000000     N
    N   1.0     0.108639     0.411266     0.975641  Biso 1.000000     N
    N   1.0     0.108647     0.907378     0.975766  Biso 1.000000     N
    N   1.0     0.636647     0.411266     0.975641  Biso 1.000000     N
    N   1.0     0.636655     0.907378     0.975766  Biso 1.000000     N
    N   1.0     0.143460     0.303820     0.886816  Biso 1.000000     N
    N   1.0     0.143444     0.799936     0.886871  Biso 1.000000     N
    N   1.0     0.671468     0.303820     0.886816  Biso 1.000000     N
    N   1.0     0.671452     0.799936     0.886871  Biso 1.000000     N
    N   1.0     0.097491     0.088901     0.651225  Biso 1.000000     N
    N   1.0     0.097310     0.585098     0.651178  Biso 1.000000     N
    N   1.0     0.625500     0.088901     0.651225  Biso 1.000000     N
    N   1.0     0.625318     0.585098     0.651178  Biso 1.000000     N
    N   1.0     0.129932     0.062494     0.553802  Biso 1.000000     N
    N   1.0     0.129718     0.558725     0.553737  Biso 1.000000     N
    N   1.0     0.657940     0.062494     0.553802  Biso 1.000000     N
    N   1.0     0.657726     0.558725     0.553737  Biso 1.000000     N
    N   1.0     0.051536     0.479123     0.578104  Biso 1.000000     N
    N   1.0     0.051752     0.975169     0.578219  Biso 1.000000     N
    N   1.0     0.579544     0.479123     0.578104  Biso 1.000000     N
    N   1.0     0.579760     0.975169     0.578219  Biso 1.000000     N
    N   1.0     0.458442     0.098566     0.081561  Biso 1.000000     N
    N   1.0     0.458432     0.594664     0.081728  Biso 1.000000     N
    N   1.0     0.986450     0.098566     0.081561  Biso 1.000000     N
    N   1.0     0.986440     0.594664     0.081728  Biso 1.000000     N
    N   1.0     0.372630     0.096041     0.059174  Biso 1.000000     N
    N   1.0     0.372626     0.592150     0.059307  Biso 1.000000     N
    N   1.0     0.900638     0.096041     0.059174  Biso 1.000000     N
    N   1.0     0.900634     0.592150     0.059307  Biso 1.000000     N
    N   1.0     0.407435     0.203482     0.148064  Biso 1.000000     N
    N   1.0     0.407453     0.699595     0.148132  Biso 1.000000     N
    N   1.0     0.935443     0.203482     0.148064  Biso 1.000000     N
    N   1.0     0.935461     0.699595     0.148132  Biso 1.000000     N
    N   1.0     0.361315     0.418319     0.383767  Biso 1.000000     N
    N   1.0     0.361498     0.914515     0.383725  Biso 1.000000     N
    N   1.0     0.889323     0.418319     0.383767  Biso 1.000000     N
    N   1.0     0.889506     0.914515     0.383725  Biso 1.000000     N
    N   1.0     0.393723     0.444692     0.481208  Biso 1.000000     N
    N   1.0     0.393941     0.940922     0.481146  Biso 1.000000     N
    N   1.0     0.921731     0.444692     0.481208  Biso 1.000000     N
    N   1.0     0.921949     0.940922     0.481146  Biso 1.000000     N
    N   1.0     0.315751     0.028248     0.456729  Biso 1.000000     N
    N   1.0     0.315545     0.524295     0.456840  Biso 1.000000     N
    N   1.0     0.843759     0.028248     0.456729  Biso 1.000000     N
    N   1.0     0.843553     0.524295     0.456839  Biso 1.000000     N
    N   1.0     0.184816     0.077951     0.311334  Biso 1.000000     N
    N   1.0     0.184835     0.574135     0.311351  Biso 1.000000     N
    N   1.0     0.712824     0.077951     0.311334  Biso 1.000000     N
    N   1.0     0.712843     0.574135     0.311351  Biso 1.000000     N
    N   1.0     0.205567     0.035656     0.142240  Biso 1.000000     N
    N   1.0     0.205583     0.531608     0.142257  Biso 1.000000     N
    N   1.0     0.733575     0.035656     0.142240  Biso 1.000000     N
    N   1.0     0.733591     0.531608     0.142257  Biso 1.000000     N
    N   1.0     0.118814     0.040050     0.159847  Biso 1.000000     N
    N   1.0     0.118829     0.536055     0.159866  Biso 1.000000     N
    N   1.0     0.646822     0.040050     0.159847  Biso 1.000000     N
    N   1.0     0.646837     0.536055     0.159865  Biso 1.000000     N
    N   1.0     0.448848     0.429282     0.723596  Biso 1.000000     N
    N   1.0     0.448831     0.925467     0.723616  Biso 1.000000     N
    N   1.0     0.976856     0.429282     0.723596  Biso 1.000000     N
    N   1.0     0.976839     0.925467     0.723616  Biso 1.000000     N
    N   1.0     0.469603     0.471807     0.892689  Biso 1.000000     N
    N   1.0     0.469592     0.967761     0.892708  Biso 1.000000     N
    N   1.0     0.997611     0.471807     0.892689  Biso 1.000000     N
    N   1.0     0.997600     0.967761     0.892708  Biso 1.000000     N
    N   1.0     0.382848     0.467361     0.875084  Biso 1.000000     N
    N   1.0     0.382838     0.963368     0.875107  Biso 1.000000     N
    N   1.0     0.910856     0.467361     0.875084  Biso 1.000000     N
    N   1.0     0.910846     0.963368     0.875107  Biso 1.000000     N
   Br   1.0     0.046336     0.329876     0.325597  Biso 1.000000    Br
   Br   1.0     0.046384     0.825981     0.325564  Biso 1.000000    Br
   Br   1.0     0.574344     0.329876     0.325597  Biso 1.000000    Br
   Br   1.0     0.574392     0.825981     0.325564  Biso 1.000000    Br
   Br   1.0     0.310387     0.177435     0.709380  Biso 1.000000    Br
   Br   1.0     0.310345     0.673538     0.709349  Biso 1.000000    Br
   Br   1.0     0.838395     0.177435     0.709380  Biso 1.000000    Br
   Br   1.0     0.838353     0.673538     0.709349  Biso 1.000000    Br
   Cd   1.0     0.023401     0.004233     0.017032  Biso 1.000000    Cd
   Cd   1.0     0.023408     0.500358     0.017036  Biso 1.000000    Cd
   Cd   1.0     0.551409     0.004233     0.017032  Biso 1.000000    Cd
   Cd   1.0     0.551416     0.500358     0.017036  Biso 1.000000    Cd
   Cd   1.0     0.226112     0.122651     0.489923  Biso 1.000000    Cd
   Cd   1.0     0.226116     0.618817     0.489968  Biso 1.000000    Cd
   Cd   1.0     0.754120     0.122651     0.489923  Biso 1.000000    Cd
   Cd   1.0     0.754124     0.618817     0.489968  Biso 1.000000    Cd
   Cd   1.0     0.287427     0.503057     0.000000  Biso 1.000000    Cd
   Cd   1.0     0.287426     0.999184     0.000000  Biso 1.000000    Cd
   Cd   1.0     0.815435     0.503057     0.000000  Biso 1.000000    Cd
   Cd   1.0     0.815434     0.999184     0.000000  Biso 1.000000    Cd
   Cd   1.0     0.490119     0.384599     0.544975  Biso 1.000000    Cd
   Cd   1.0     0.490120     0.880765     0.545025  Biso 1.000000    Cd
   Cd   1.0     0.000000     0.384599     0.544975  Biso 1.000000    Cd
   Cd   1.0     0.000000     0.880765     0.545025  Biso 1.000000    Cd
   Cd   1.0     0.410811     0.315016     0.267679  Biso 1.000000    Cd
   Cd   1.0     0.410860     0.811150     0.267669  Biso 1.000000    Cd
   Cd   1.0     0.938819     0.315016     0.267679  Biso 1.000000    Cd
   Cd   1.0     0.938868     0.811150     0.267669  Biso 1.000000    Cd
   Cd   1.0     0.146856     0.192266     0.767279  Biso 1.000000    Cd
   Cd   1.0     0.146812     0.688400     0.767264  Biso 1.000000    Cd
   Cd   1.0     0.674864     0.192266     0.767279  Biso 1.000000    Cd
   Cd   1.0     0.674820     0.688400     0.767264  Biso 1.000000    Cd
