#======================================================================

# CRYSTAL DATA

#----------------------------------------------------------------------

data_VESTA_phase_1


_pd_phase_name                         MOF
_cell_length_a                         12.54900
_cell_length_b                         22.95400
_cell_length_c                         14.84000
_cell_angle_alpha                      90.00000
_cell_angle_beta                       90.00000
_cell_angle_gamma                      89.99900
_symmetry_space_group_name_H-M         "P 1"
_symmetry_Int_Tables_number            1

loop_
_symmetry_equiv_pos_as_xyz
   "x, y, z"

loop_
   _atom_site_label
   _atom_site_occupancy
   _atom_site_fract_x
   _atom_site_fract_y
   _atom_site_fract_z
   _atom_site_adp_type
   _atom_site_B_iso_or_equiv
   _atom_site_type_symbol
    H   1.0     0.070804     0.911276     0.858323  Biso 1.000000     H
    H   1.0     0.211797     0.837608     0.862490  Biso 1.000000     H
    H   1.0     0.210246     0.843233     0.153483  Biso 1.000000     H
    H   1.0     0.069128     0.916779     0.149727  Biso 1.000000     H
    H   1.0     0.664279     0.958617     0.792252  Biso 1.000000     H
    H   1.0     0.656085     0.850755     0.798153  Biso 1.000000     H
    H   1.0     0.339572     0.848664     0.720796  Biso 1.000000     H
    H   1.0     0.330978     0.956497     0.713697  Biso 1.000000     H
    H   1.0     0.929244     0.588742     0.858323  Biso 1.000000     H
    H   1.0     0.788251     0.662410     0.862490  Biso 1.000000     H
    H   1.0     0.789801     0.656788     0.153483  Biso 1.000000     H
    H   1.0     0.930919     0.583243     0.149727  Biso 1.000000     H
    H   1.0     0.335770     0.541401     0.792254  Biso 1.000000     H
    H   1.0     0.343962     0.649262     0.798152  Biso 1.000000     H
    H   1.0     0.660475     0.651354     0.720794  Biso 1.000000     H
    H   1.0     0.669071     0.543521     0.713699  Biso 1.000000     H
    H   1.0     0.070796     0.088734     0.641680  Biso 1.000000     H
    H   1.0     0.211787     0.162400     0.637513  Biso 1.000000     H
    H   1.0     0.210235     0.156777     0.346518  Biso 1.000000     H
    H   1.0     0.069120     0.083233     0.350274  Biso 1.000000     H
    H   1.0     0.664267     0.041388     0.707748  Biso 1.000000     H
    H   1.0     0.656079     0.149250     0.701848  Biso 1.000000     H
    H   1.0     0.339566     0.151351     0.779204  Biso 1.000000     H
    H   1.0     0.330966     0.043519     0.786303  Biso 1.000000     H
    H   1.0     0.929238     0.411270     0.641679  Biso 1.000000     H
    H   1.0     0.788248     0.337604     0.637513  Biso 1.000000     H
    H   1.0     0.789797     0.343227     0.346518  Biso 1.000000     H
    H   1.0     0.930913     0.416772     0.350273  Biso 1.000000     H
    H   1.0     0.335768     0.458615     0.707744  Biso 1.000000     H
    H   1.0     0.343955     0.350753     0.701846  Biso 1.000000     H
    H   1.0     0.660468     0.348652     0.779204  Biso 1.000000     H
    H   1.0     0.669069     0.456485     0.786299  Biso 1.000000     H
    H   1.0     0.929238     0.088736     0.141679  Biso 1.000000     H
    H   1.0     0.788244     0.162404     0.137512  Biso 1.000000     H
    H   1.0     0.789795     0.156779     0.846519  Biso 1.000000     H
    H   1.0     0.930913     0.083233     0.850275  Biso 1.000000     H
    H   1.0     0.335764     0.041395     0.207745  Biso 1.000000     H
    H   1.0     0.343954     0.149257     0.201851  Biso 1.000000     H
    H   1.0     0.660467     0.151348     0.279208  Biso 1.000000     H
    H   1.0     0.669065     0.043515     0.286300  Biso 1.000000     H
    H   1.0     0.070797     0.411271     0.141678  Biso 1.000000     H
    H   1.0     0.211790     0.337603     0.137511  Biso 1.000000     H
    H   1.0     0.210239     0.343224     0.846518  Biso 1.000000     H
    H   1.0     0.069121     0.416770     0.850274  Biso 1.000000     H
    H   1.0     0.664268     0.458612     0.207742  Biso 1.000000     H
    H   1.0     0.656079     0.350750     0.201851  Biso 1.000000     H
    H   1.0     0.339566     0.348658     0.279208  Biso 1.000000     H
    H   1.0     0.330967     0.456491     0.286297  Biso 1.000000     H
    H   1.0     0.929244     0.911278     0.358322  Biso 1.000000     H
    H   1.0     0.788254     0.837612     0.362489  Biso 1.000000     H
    H   1.0     0.789804     0.843234     0.653484  Biso 1.000000     H
    H   1.0     0.930920     0.916779     0.649728  Biso 1.000000     H
    H   1.0     0.335775     0.958624     0.292261  Biso 1.000000     H
    H   1.0     0.343961     0.850762     0.298155  Biso 1.000000     H
    H   1.0     0.660474     0.848661     0.220798  Biso 1.000000     H
    H   1.0     0.669076     0.956494     0.213706  Biso 1.000000     H
    H   1.0     0.070802     0.588741     0.358322  Biso 1.000000     H
    H   1.0     0.211792     0.662408     0.362488  Biso 1.000000     H
    H   1.0     0.210243     0.656784     0.653483  Biso 1.000000     H
    H   1.0     0.069127     0.583240     0.649728  Biso 1.000000     H
    H   1.0     0.664270     0.541396     0.292262  Biso 1.000000     H
    H   1.0     0.656086     0.649258     0.298154  Biso 1.000000     H
    H   1.0     0.339573     0.651361     0.220797  Biso 1.000000     H
    H   1.0     0.330970     0.543528     0.213708  Biso 1.000000     H
    C   1.0     0.180139     0.858118     0.088573  Biso 1.000000     C
    C   1.0     0.222256     0.834565     0.008267  Biso 1.000000     C
    C   1.0     0.346364     0.766779     0.931254  Biso 1.000000     C
    C   1.0     0.345628     0.768523     0.090819  Biso 1.000000     C
    C   1.0     0.305004     0.790020     0.010298  Biso 1.000000     C
    C   1.0     0.586384     0.876186     0.778811  Biso 1.000000     C
    C   1.0     0.589965     0.936641     0.775398  Biso 1.000000     C
    C   1.0     0.497649     0.967820     0.752206  Biso 1.000000     C
    C   1.0     0.181041     0.855035     0.925632  Biso 1.000000     C
    C   1.0     0.405314     0.935497     0.733240  Biso 1.000000     C
    C   1.0     0.973872     0.966459     0.001055  Biso 1.000000     C
    C   1.0     0.904351     0.963092     0.080388  Biso 1.000000     C
    C   1.0     0.906484     0.960521     0.920730  Biso 1.000000     C
    C   1.0     0.100000     0.899709     0.086365  Biso 1.000000     C
    C   1.0     0.059345     0.919383     0.003704  Biso 1.000000     C
    C   1.0     0.409113     0.875058     0.737226  Biso 1.000000     C
    C   1.0     0.101006     0.896636     0.923346  Biso 1.000000     C
    C   1.0     0.819909     0.641904     0.088573  Biso 1.000000     C
    C   1.0     0.777792     0.665458     0.008268  Biso 1.000000     C
    C   1.0     0.653684     0.733239     0.931255  Biso 1.000000     C
    C   1.0     0.654419     0.731498     0.090820  Biso 1.000000     C
    C   1.0     0.695044     0.710002     0.010298  Biso 1.000000     C
    C   1.0     0.413661     0.623832     0.778803  Biso 1.000000     C
    C   1.0     0.410083     0.563377     0.775398  Biso 1.000000     C
    C   1.0     0.502396     0.532199     0.752195  Biso 1.000000     C
    C   1.0     0.819007     0.644983     0.925633  Biso 1.000000     C
    C   1.0     0.594734     0.564521     0.733239  Biso 1.000000     C
    C   1.0     0.026177     0.533563     0.001055  Biso 1.000000     C
    C   1.0     0.095697     0.536931     0.080389  Biso 1.000000     C
    C   1.0     0.093564     0.539497     0.920731  Biso 1.000000     C
    C   1.0     0.900048     0.600313     0.086365  Biso 1.000000     C
    C   1.0     0.940703     0.580639     0.003704  Biso 1.000000     C
    C   1.0     0.590932     0.624960     0.737217  Biso 1.000000     C
    C   1.0     0.899041     0.603382     0.923346  Biso 1.000000     C
    C   1.0     0.180129     0.141893     0.411428  Biso 1.000000     C
    C   1.0     0.222246     0.165446     0.491733  Biso 1.000000     C
    C   1.0     0.346352     0.233230     0.568747  Biso 1.000000     C
    C   1.0     0.345616     0.231488     0.409181  Biso 1.000000     C
    C   1.0     0.304992     0.209991     0.489703  Biso 1.000000     C
    C   1.0     0.586379     0.123822     0.721193  Biso 1.000000     C
    C   1.0     0.589955     0.063366     0.724604  Biso 1.000000     C
    C   1.0     0.497638     0.032191     0.747796  Biso 1.000000     C
    C   1.0     0.181031     0.144974     0.574370  Biso 1.000000     C
    C   1.0     0.405304     0.064516     0.766762  Biso 1.000000     C
    C   1.0     0.973861     0.033555     0.498946  Biso 1.000000     C
    C   1.0     0.904340     0.036925     0.419613  Biso 1.000000     C
    C   1.0     0.906474     0.039494     0.579272  Biso 1.000000     C
    C   1.0     0.099991     0.100303     0.413636  Biso 1.000000     C
    C   1.0     0.059337     0.080629     0.496297  Biso 1.000000     C
    C   1.0     0.409107     0.124955     0.762779  Biso 1.000000     C
    C   1.0     0.100998     0.103373     0.576656  Biso 1.000000     C
    C   1.0     0.819904     0.358112     0.411428  Biso 1.000000     C
    C   1.0     0.777788     0.334558     0.491733  Biso 1.000000     C
    C   1.0     0.653682     0.266775     0.568748  Biso 1.000000     C
    C   1.0     0.654416     0.268517     0.409182  Biso 1.000000     C
    C   1.0     0.695041     0.290014     0.489703  Biso 1.000000     C
    C   1.0     0.413655     0.376182     0.721194  Biso 1.000000     C
    C   1.0     0.410080     0.436637     0.724600  Biso 1.000000     C
    C   1.0     0.502394     0.467812     0.747802  Biso 1.000000     C
    C   1.0     0.819003     0.355030     0.574370  Biso 1.000000     C
    C   1.0     0.594731     0.435487     0.766758  Biso 1.000000     C
    C   1.0     0.026173     0.466449     0.498945  Biso 1.000000     C
    C   1.0     0.095693     0.463079     0.419612  Biso 1.000000     C
    C   1.0     0.093560     0.460510     0.579271  Biso 1.000000     C
    C   1.0     0.900041     0.399702     0.413635  Biso 1.000000     C
    C   1.0     0.940697     0.419376     0.496297  Biso 1.000000     C
    C   1.0     0.590926     0.375048     0.762780  Biso 1.000000     C
    C   1.0     0.899036     0.396631     0.576656  Biso 1.000000     C
    C   1.0     0.819902     0.141894     0.911429  Biso 1.000000     C
    C   1.0     0.777785     0.165448     0.991734  Biso 1.000000     C
    C   1.0     0.653677     0.233233     0.068747  Biso 1.000000     C
    C   1.0     0.654412     0.231488     0.909182  Biso 1.000000     C
    C   1.0     0.695036     0.209992     0.989704  Biso 1.000000     C
    C   1.0     0.413651     0.123826     0.221204  Biso 1.000000     C
    C   1.0     0.410076     0.063371     0.224603  Biso 1.000000     C
    C   1.0     0.502386     0.032193     0.247816  Biso 1.000000     C
    C   1.0     0.819000     0.144978     0.074369  Biso 1.000000     C
    C   1.0     0.594728     0.064515     0.266761  Biso 1.000000     C
    C   1.0     0.026170     0.033553     0.998946  Biso 1.000000     C
    C   1.0     0.095690     0.036921     0.919613  Biso 1.000000     C
    C   1.0     0.093557     0.039492     0.079271  Biso 1.000000     C
    C   1.0     0.900041     0.100303     0.913636  Biso 1.000000     C
    C   1.0     0.940696     0.080629     0.996298  Biso 1.000000     C
    C   1.0     0.590923     0.124954     0.262791  Biso 1.000000     C
    C   1.0     0.899035     0.103376     0.076655  Biso 1.000000     C
    C   1.0     0.180132     0.358109     0.911429  Biso 1.000000     C
    C   1.0     0.222249     0.334555     0.991734  Biso 1.000000     C
    C   1.0     0.346357     0.266774     0.068747  Biso 1.000000     C
    C   1.0     0.345621     0.268514     0.909182  Biso 1.000000     C
    C   1.0     0.304997     0.290010     0.989703  Biso 1.000000     C
    C   1.0     0.586383     0.376180     0.221207  Biso 1.000000     C
    C   1.0     0.589956     0.436636     0.224601  Biso 1.000000     C
    C   1.0     0.497648     0.467813     0.247820  Biso 1.000000     C
    C   1.0     0.181034     0.355029     0.074369  Biso 1.000000     C
    C   1.0     0.405305     0.435491     0.266760  Biso 1.000000     C
    C   1.0     0.973865     0.466450     0.998946  Biso 1.000000     C
    C   1.0     0.904344     0.463082     0.919613  Biso 1.000000     C
    C   1.0     0.906478     0.460515     0.079271  Biso 1.000000     C
    C   1.0     0.099994     0.399700     0.913636  Biso 1.000000     C
    C   1.0     0.059339     0.419374     0.996298  Biso 1.000000     C
    C   1.0     0.409111     0.375051     0.262793  Biso 1.000000     C
    C   1.0     0.101000     0.396631     0.076655  Biso 1.000000     C
    C   1.0     0.819911     0.858119     0.588574  Biso 1.000000     C
    C   1.0     0.777794     0.834566     0.508269  Biso 1.000000     C
    C   1.0     0.653688     0.766783     0.431254  Biso 1.000000     C
    C   1.0     0.654424     0.768524     0.590820  Biso 1.000000     C
    C   1.0     0.695048     0.790021     0.510299  Biso 1.000000     C
    C   1.0     0.413660     0.876190     0.278803  Biso 1.000000     C
    C   1.0     0.410087     0.936646     0.275404  Biso 1.000000     C
    C   1.0     0.502398     0.967821     0.252191  Biso 1.000000     C
    C   1.0     0.819009     0.855038     0.425632  Biso 1.000000     C
    C   1.0     0.594738     0.935496     0.233246  Biso 1.000000     C
    C   1.0     0.026180     0.966457     0.501056  Biso 1.000000     C
    C   1.0     0.095700     0.963086     0.580390  Biso 1.000000     C
    C   1.0     0.093567     0.960517     0.420730  Biso 1.000000     C
    C   1.0     0.900048     0.899709     0.586366  Biso 1.000000     C
    C   1.0     0.940703     0.919383     0.503705  Biso 1.000000     C
    C   1.0     0.590931     0.875057     0.237217  Biso 1.000000     C
    C   1.0     0.899042     0.896639     0.423346  Biso 1.000000     C
    C   1.0     0.180136     0.641900     0.588573  Biso 1.000000     C
    C   1.0     0.222253     0.665453     0.508268  Biso 1.000000     C
    C   1.0     0.346359     0.733237     0.431254  Biso 1.000000     C
    C   1.0     0.345624     0.731494     0.590819  Biso 1.000000     C
    C   1.0     0.304999     0.709997     0.510298  Biso 1.000000     C
    C   1.0     0.586388     0.623831     0.278800  Biso 1.000000     C
    C   1.0     0.589959     0.563375     0.275405  Biso 1.000000     C
    C   1.0     0.497649     0.532200     0.252186  Biso 1.000000     C
    C   1.0     0.181038     0.644981     0.425631  Biso 1.000000     C
    C   1.0     0.405308     0.564525     0.233246  Biso 1.000000     C
    C   1.0     0.973867     0.533562     0.501056  Biso 1.000000     C
    C   1.0     0.904347     0.536933     0.580389  Biso 1.000000     C
    C   1.0     0.906480     0.539502     0.420730  Biso 1.000000     C
    C   1.0     0.099999     0.600310     0.586366  Biso 1.000000     C
    C   1.0     0.059344     0.580636     0.503704  Biso 1.000000     C
    C   1.0     0.409117     0.624965     0.237214  Biso 1.000000     C
    C   1.0     0.101004     0.603381     0.423345  Biso 1.000000     C
    N   1.0     0.378719     0.747262     0.863172  Biso 1.000000     N
    N   1.0     0.377956     0.750047     0.159591  Biso 1.000000     N
    N   1.0     0.850662     0.959276     0.144192  Biso 1.000000     N
    N   1.0     0.497836     0.845342     0.759687  Biso 1.000000     N
    N   1.0     0.854580     0.954715     0.856221  Biso 1.000000     N
    N   1.0     0.621329     0.752756     0.863173  Biso 1.000000     N
    N   1.0     0.622092     0.749974     0.159592  Biso 1.000000     N
    N   1.0     0.149385     0.540746     0.144193  Biso 1.000000     N
    N   1.0     0.502217     0.654675     0.759704  Biso 1.000000     N
    N   1.0     0.145468     0.545304     0.856221  Biso 1.000000     N
    N   1.0     0.378710     0.252749     0.636827  Biso 1.000000     N
    N   1.0     0.377946     0.249965     0.340412  Biso 1.000000     N
    N   1.0     0.850652     0.040743     0.355809  Biso 1.000000     N
    N   1.0     0.497825     0.154668     0.740298  Biso 1.000000     N
    N   1.0     0.854570     0.045302     0.643782  Biso 1.000000     N
    N   1.0     0.621325     0.247255     0.636827  Biso 1.000000     N
    N   1.0     0.622087     0.250040     0.340412  Biso 1.000000     N
    N   1.0     0.149381     0.459262     0.355808  Biso 1.000000     N
    N   1.0     0.502209     0.345336     0.740296  Biso 1.000000     N
    N   1.0     0.145464     0.454702     0.643781  Biso 1.000000     N
    N   1.0     0.621323     0.252751     0.136829  Biso 1.000000     N
    N   1.0     0.622085     0.249964     0.840410  Biso 1.000000     N
    N   1.0     0.149379     0.040737     0.855809  Biso 1.000000     N
    N   1.0     0.502214     0.154669     0.240285  Biso 1.000000     N
    N   1.0     0.145461     0.045298     0.143781  Biso 1.000000     N
    N   1.0     0.378712     0.247256     0.136828  Biso 1.000000     N
    N   1.0     0.377948     0.250038     0.840410  Biso 1.000000     N
    N   1.0     0.850656     0.459267     0.855809  Biso 1.000000     N
    N   1.0     0.497818     0.345337     0.240280  Biso 1.000000     N
    N   1.0     0.854574     0.454709     0.143780  Biso 1.000000     N
    N   1.0     0.621331     0.747264     0.363174  Biso 1.000000     N
    N   1.0     0.622096     0.750046     0.659589  Biso 1.000000     N
    N   1.0     0.149388     0.959269     0.644194  Biso 1.000000     N
    N   1.0     0.502218     0.845345     0.259715  Biso 1.000000     N
    N   1.0     0.145470     0.954710     0.356221  Biso 1.000000     N
    N   1.0     0.378716     0.752757     0.363174  Biso 1.000000     N
    N   1.0     0.377953     0.749972     0.659589  Biso 1.000000     N
    N   1.0     0.850659     0.540749     0.644193  Biso 1.000000     N
    N   1.0     0.497827     0.654676     0.259720  Biso 1.000000     N
    N   1.0     0.854576     0.545309     0.356220  Biso 1.000000     N
   Zn   1.0     0.500024     0.750009     0.761549  Biso 1.000000    Zn
   Zn   1.0     0.500017     0.250002     0.738451  Biso 1.000000    Zn
   Zn   1.0     0.500017     0.250003     0.238451  Biso 1.000000    Zn
   Zn   1.0     0.500024     0.750010     0.261552  Biso 1.000000    Zn
