#======================================================================

# CRYSTAL DATA

#----------------------------------------------------------------------

data_VESTA_phase_1


_pd_phase_name                         MOF
_cell_length_a                         22.96900
_cell_length_b                         12.56500
_cell_length_c                         14.83100
_cell_angle_alpha                      90.00000
_cell_angle_beta                       90.00000
_cell_angle_gamma                      90.00000
_symmetry_space_group_name_H-M         "P 1"
_symmetry_Int_Tables_number            1

loop_
_symmetry_equiv_pos_as_xyz
   "x, y, z"

loop_
   _atom_site_label
   _atom_site_occupancy
   _atom_site_fract_x
   _atom_site_fract_y
   _atom_site_fract_z
   _atom_site_adp_type
   _atom_site_B_iso_or_equiv
   _atom_site_type_symbol
    H   1.0     0.457519     0.666266     0.289861  Biso 1.000000     H
    H   1.0     0.957511     0.666262     0.289869  Biso 1.000000     H
    H   1.0     0.340815     0.788039     0.145656  Biso 1.000000     H
    H   1.0     0.840806     0.788039     0.145655  Biso 1.000000     H
    H   1.0     0.349649     0.657858     0.289287  Biso 1.000000     H
    H   1.0     0.849641     0.657862     0.289283  Biso 1.000000     H
    H   1.0     0.414267     0.929163     0.145864  Biso 1.000000     H
    H   1.0     0.914258     0.929163     0.145864  Biso 1.000000     H
    H   1.0     0.042471     0.333742     0.289867  Biso 1.000000     H
    H   1.0     0.542461     0.333746     0.289871  Biso 1.000000     H
    H   1.0     0.159176     0.211966     0.145656  Biso 1.000000     H
    H   1.0     0.659168     0.211964     0.145655  Biso 1.000000     H
    H   1.0     0.150341     0.342144     0.289289  Biso 1.000000     H
    H   1.0     0.650332     0.342143     0.289284  Biso 1.000000     H
    H   1.0     0.085724     0.070843     0.145864  Biso 1.000000     H
    H   1.0     0.585715     0.070842     0.145864  Biso 1.000000     H
    H   1.0     0.042471     0.666261     0.210116  Biso 1.000000     H
    H   1.0     0.542463     0.666266     0.210121  Biso 1.000000     H
    H   1.0     0.159176     0.788039     0.354331  Biso 1.000000     H
    H   1.0     0.659167     0.788037     0.354330  Biso 1.000000     H
    H   1.0     0.150342     0.657861     0.210702  Biso 1.000000     H
    H   1.0     0.650333     0.657860     0.210698  Biso 1.000000     H
    H   1.0     0.085723     0.929162     0.354122  Biso 1.000000     H
    H   1.0     0.585714     0.929160     0.354121  Biso 1.000000     H
    H   1.0     0.457521     0.333745     0.210112  Biso 1.000000     H
    H   1.0     0.957511     0.333742     0.210119  Biso 1.000000     H
    H   1.0     0.340816     0.211964     0.354331  Biso 1.000000     H
    H   1.0     0.840807     0.211963     0.354329  Biso 1.000000     H
    H   1.0     0.349651     0.342141     0.210701  Biso 1.000000     H
    H   1.0     0.849641     0.342145     0.210697  Biso 1.000000     H
    H   1.0     0.414268     0.070842     0.354122  Biso 1.000000     H
    H   1.0     0.914259     0.070841     0.354122  Biso 1.000000     H
    H   1.0     0.042472     0.333742     0.710095  Biso 1.000000     H
    H   1.0     0.542462     0.333741     0.710099  Biso 1.000000     H
    H   1.0     0.159178     0.211965     0.854315  Biso 1.000000     H
    H   1.0     0.659169     0.211964     0.854315  Biso 1.000000     H
    H   1.0     0.150343     0.342144     0.710682  Biso 1.000000     H
    H   1.0     0.650333     0.342143     0.710681  Biso 1.000000     H
    H   1.0     0.085726     0.070842     0.854107  Biso 1.000000     H
    H   1.0     0.585716     0.070842     0.854106  Biso 1.000000     H
    H   1.0     0.457521     0.666261     0.710098  Biso 1.000000     H
    H   1.0     0.957511     0.666261     0.710096  Biso 1.000000     H
    H   1.0     0.340816     0.788038     0.854316  Biso 1.000000     H
    H   1.0     0.840807     0.788040     0.854315  Biso 1.000000     H
    H   1.0     0.349650     0.657863     0.710686  Biso 1.000000     H
    H   1.0     0.849640     0.657860     0.710683  Biso 1.000000     H
    H   1.0     0.414268     0.929162     0.854107  Biso 1.000000     H
    H   1.0     0.914259     0.929163     0.854107  Biso 1.000000     H
    H   1.0     0.457520     0.333741     0.789847  Biso 1.000000     H
    H   1.0     0.957512     0.333741     0.789846  Biso 1.000000     H
    H   1.0     0.340816     0.211963     0.645641  Biso 1.000000     H
    H   1.0     0.840806     0.211964     0.645640  Biso 1.000000     H
    H   1.0     0.349650     0.342146     0.789271  Biso 1.000000     H
    H   1.0     0.849641     0.342143     0.789269  Biso 1.000000     H
    H   1.0     0.414269     0.070841     0.645849  Biso 1.000000     H
    H   1.0     0.914259     0.070842     0.645849  Biso 1.000000     H
    H   1.0     0.042470     0.666261     0.789846  Biso 1.000000     H
    H   1.0     0.542463     0.666261     0.789850  Biso 1.000000     H
    H   1.0     0.159176     0.788039     0.645641  Biso 1.000000     H
    H   1.0     0.659167     0.788038     0.645641  Biso 1.000000     H
    H   1.0     0.150341     0.657860     0.789270  Biso 1.000000     H
    H   1.0     0.650333     0.657860     0.789268  Biso 1.000000     H
    H   1.0     0.085723     0.929162     0.645850  Biso 1.000000     H
    H   1.0     0.585715     0.929161     0.645849  Biso 1.000000     H
    C   1.0     0.375568     0.588432     0.271104  Biso 1.000000     C
    C   1.0     0.875558     0.588422     0.271131  Biso 1.000000     C
    C   1.0     0.436027     0.592106     0.271426  Biso 1.000000     C
    C   1.0     0.936016     0.592118     0.271396  Biso 1.000000     C
    C   1.0     0.267768     0.653760     0.079822  Biso 1.000000     C
    C   1.0     0.767758     0.653761     0.079822  Biso 1.000000     C
    C   1.0     0.356929     0.818505     0.081559  Biso 1.000000     C
    C   1.0     0.856920     0.818506     0.081558  Biso 1.000000     C
    C   1.0     0.461478     0.094076     0.079920  Biso 1.000000     C
    C   1.0     0.961469     0.094076     0.079921  Biso 1.000000     C
    C   1.0     0.398439     0.898633     0.081599  Biso 1.000000     C
    C   1.0     0.898430     0.898633     0.081598  Biso 1.000000     C
    C   1.0     0.124423     0.411576     0.271116  Biso 1.000000     C
    C   1.0     0.624415     0.411588     0.271142  Biso 1.000000     C
    C   1.0     0.063964     0.407895     0.271418  Biso 1.000000     C
    C   1.0     0.563957     0.407884     0.271385  Biso 1.000000     C
    C   1.0     0.232224     0.346244     0.079822  Biso 1.000000     C
    C   1.0     0.732215     0.346244     0.079821  Biso 1.000000     C
    C   1.0     0.143062     0.181500     0.081559  Biso 1.000000     C
    C   1.0     0.643054     0.181498     0.081559  Biso 1.000000     C
    C   1.0     0.038513     0.905930     0.079921  Biso 1.000000     C
    C   1.0     0.538504     0.905930     0.079920  Biso 1.000000     C
    C   1.0     0.101552     0.101373     0.081599  Biso 1.000000     C
    C   1.0     0.601543     0.101372     0.081598  Biso 1.000000     C
    C   1.0     0.124424     0.588421     0.228854  Biso 1.000000     C
    C   1.0     0.624414     0.588433     0.228880  Biso 1.000000     C
    C   1.0     0.063966     0.592117     0.228588  Biso 1.000000     C
    C   1.0     0.563955     0.592106     0.228556  Biso 1.000000     C
    C   1.0     0.232224     0.653760     0.420165  Biso 1.000000     C
    C   1.0     0.732215     0.653759     0.420164  Biso 1.000000     C
    C   1.0     0.143062     0.818505     0.418427  Biso 1.000000     C
    C   1.0     0.643053     0.818504     0.418427  Biso 1.000000     C
    C   1.0     0.038515     0.094074     0.420065  Biso 1.000000     C
    C   1.0     0.538506     0.094074     0.420064  Biso 1.000000     C
    C   1.0     0.101551     0.898632     0.418388  Biso 1.000000     C
    C   1.0     0.601542     0.898630     0.418387  Biso 1.000000     C
    C   1.0     0.375567     0.411586     0.228842  Biso 1.000000     C
    C   1.0     0.875559     0.411577     0.228869  Biso 1.000000     C
    C   1.0     0.436025     0.407883     0.228598  Biso 1.000000     C
    C   1.0     0.936018     0.407895     0.228567  Biso 1.000000     C
    C   1.0     0.267768     0.346242     0.420165  Biso 1.000000     C
    C   1.0     0.767759     0.346243     0.420163  Biso 1.000000     C
    C   1.0     0.356930     0.181498     0.418427  Biso 1.000000     C
    C   1.0     0.856921     0.181498     0.418426  Biso 1.000000     C
    C   1.0     0.461477     0.905929     0.420064  Biso 1.000000     C
    C   1.0     0.961468     0.905928     0.420065  Biso 1.000000     C
    C   1.0     0.398441     0.101372     0.418387  Biso 1.000000     C
    C   1.0     0.898432     0.101371     0.418387  Biso 1.000000     C
    C   1.0     0.124424     0.411580     0.728841  Biso 1.000000     C
    C   1.0     0.624415     0.411575     0.728851  Biso 1.000000     C
    C   1.0     0.063966     0.407890     0.728559  Biso 1.000000     C
    C   1.0     0.563956     0.407894     0.728550  Biso 1.000000     C
    C   1.0     0.232225     0.346245     0.920150  Biso 1.000000     C
    C   1.0     0.732216     0.346243     0.920148  Biso 1.000000     C
    C   1.0     0.143064     0.181499     0.918412  Biso 1.000000     C
    C   1.0     0.643055     0.181498     0.918412  Biso 1.000000     C
    C   1.0     0.038515     0.905930     0.920050  Biso 1.000000     C
    C   1.0     0.538505     0.905930     0.920049  Biso 1.000000     C
    C   1.0     0.101554     0.101372     0.918372  Biso 1.000000     C
    C   1.0     0.601544     0.101372     0.918372  Biso 1.000000     C
    C   1.0     0.375567     0.588423     0.728839  Biso 1.000000     C
    C   1.0     0.875559     0.588425     0.728846  Biso 1.000000     C
    C   1.0     0.436026     0.592118     0.728571  Biso 1.000000     C
    C   1.0     0.936017     0.592112     0.728557  Biso 1.000000     C
    C   1.0     0.267768     0.653760     0.920150  Biso 1.000000     C
    C   1.0     0.767759     0.653761     0.920149  Biso 1.000000     C
    C   1.0     0.356930     0.818504     0.918412  Biso 1.000000     C
    C   1.0     0.856921     0.818506     0.918411  Biso 1.000000     C
    C   1.0     0.461479     0.094075     0.920049  Biso 1.000000     C
    C   1.0     0.961470     0.094076     0.920050  Biso 1.000000     C
    C   1.0     0.398440     0.898632     0.918372  Biso 1.000000     C
    C   1.0     0.898431     0.898633     0.918372  Biso 1.000000     C
    C   1.0     0.375569     0.411578     0.771101  Biso 1.000000     C
    C   1.0     0.875559     0.411580     0.771108  Biso 1.000000     C
    C   1.0     0.436027     0.407895     0.771399  Biso 1.000000     C
    C   1.0     0.936017     0.407889     0.771385  Biso 1.000000     C
    C   1.0     0.267768     0.346243     0.579808  Biso 1.000000     C
    C   1.0     0.767759     0.346243     0.579806  Biso 1.000000     C
    C   1.0     0.356930     0.181497     0.581545  Biso 1.000000     C
    C   1.0     0.856921     0.181498     0.581543  Biso 1.000000     C
    C   1.0     0.461477     0.905928     0.579905  Biso 1.000000     C
    C   1.0     0.961468     0.905929     0.579907  Biso 1.000000     C
    C   1.0     0.398441     0.101371     0.581584  Biso 1.000000     C
    C   1.0     0.898431     0.101372     0.581584  Biso 1.000000     C
    C   1.0     0.124423     0.588425     0.771104  Biso 1.000000     C
    C   1.0     0.624416     0.588421     0.771114  Biso 1.000000     C
    C   1.0     0.063965     0.592112     0.771388  Biso 1.000000     C
    C   1.0     0.563957     0.592116     0.771380  Biso 1.000000     C
    C   1.0     0.232224     0.653761     0.579807  Biso 1.000000     C
    C   1.0     0.732215     0.653760     0.579807  Biso 1.000000     C
    C   1.0     0.143062     0.818505     0.581544  Biso 1.000000     C
    C   1.0     0.643053     0.818504     0.581544  Biso 1.000000     C
    C   1.0     0.038515     0.094074     0.579907  Biso 1.000000     C
    C   1.0     0.538506     0.094074     0.579905  Biso 1.000000     C
    C   1.0     0.101551     0.898631     0.581584  Biso 1.000000     C
    C   1.0     0.601542     0.898631     0.581583  Biso 1.000000     C
    C   1.0     0.290262     0.694487     0.999971  Biso 1.000000     C
    C   1.0     0.790251     0.694488    -0.000000  Biso 1.000000     C
    C   1.0     0.334896     0.776943     0.000001  Biso 1.000000     C
    C   1.0     0.834886     0.776944    -0.000000  Biso 1.000000     C
    C   1.0     0.466383     0.025760    -0.000000  Biso 1.000000     C
    C   1.0     0.966374     0.025760     0.000000  Biso 1.000000     C
    C   1.0     0.419568     0.939872     0.000000  Biso 1.000000     C
    C   1.0     0.919559     0.939873     0.000000  Biso 1.000000     C
    C   1.0     0.209731     0.305518     0.000001  Biso 1.000000     C
    C   1.0     0.709723     0.305517     0.999970  Biso 1.000000     C
    C   1.0     0.165096     0.223062     0.000001  Biso 1.000000     C
    C   1.0     0.665087     0.223061     0.000000  Biso 1.000000     C
    C   1.0     0.033609     0.974246     0.999970  Biso 1.000000     C
    C   1.0     0.533600     0.974245     0.999970  Biso 1.000000     C
    C   1.0     0.080423     0.060134     0.000001  Biso 1.000000     C
    C   1.0     0.580414     0.060133    -0.000000  Biso 1.000000     C
    C   1.0     0.209730     0.694486     0.499986  Biso 1.000000     C
    C   1.0     0.709721     0.694486     0.499986  Biso 1.000000     C
    C   1.0     0.165095     0.776942     0.499986  Biso 1.000000     C
    C   1.0     0.665086     0.776941     0.499985  Biso 1.000000     C
    C   1.0     0.033609     0.025758     0.499986  Biso 1.000000     C
    C   1.0     0.533601     0.025758     0.499985  Biso 1.000000     C
    C   1.0     0.080423     0.939871     0.499986  Biso 1.000000     C
    C   1.0     0.580414     0.939870     0.499985  Biso 1.000000     C
    C   1.0     0.290262     0.305516     0.499986  Biso 1.000000     C
    C   1.0     0.790253     0.305516     0.499984  Biso 1.000000     C
    C   1.0     0.334897     0.223060     0.499986  Biso 1.000000     C
    C   1.0     0.834888     0.223061     0.499985  Biso 1.000000     C
    C   1.0     0.466382     0.974245     0.499985  Biso 1.000000     C
    C   1.0     0.966373     0.974245     0.499986  Biso 1.000000     C
    C   1.0     0.419569     0.060132     0.499985  Biso 1.000000     C
    C   1.0     0.919560     0.060132     0.499985  Biso 1.000000     C
    C   1.0     0.467785     0.500005     0.249977  Biso 1.000000     C
    C   1.0     0.967776     0.500002     0.249999  Biso 1.000000     C
    C   1.0     0.032207     0.500002     0.249987  Biso 1.000000     C
    C   1.0     0.532197     0.500005     0.250006  Biso 1.000000     C
    C   1.0     0.032207     0.500001     0.749970  Biso 1.000000     C
    C   1.0     0.532198     0.500001     0.749978  Biso 1.000000     C
    C   1.0     0.467785     0.500001     0.749966  Biso 1.000000     C
    C   1.0     0.967776     0.500001     0.749972  Biso 1.000000     C
    N   1.0     0.456417     0.146761     0.144122  Biso 1.000000     N
    N   1.0     0.956408     0.146760     0.144123  Biso 1.000000     N
    N   1.0     0.248632     0.621601     0.148243  Biso 1.000000     N
    N   1.0     0.748623     0.621601     0.148242  Biso 1.000000     N
    N   1.0     0.043574     0.853246     0.144123  Biso 1.000000     N
    N   1.0     0.543565     0.853246     0.144123  Biso 1.000000     N
    N   1.0     0.251360     0.378402     0.148243  Biso 1.000000     N
    N   1.0     0.751349     0.378405     0.148242  Biso 1.000000     N
    N   1.0     0.043575     0.146759     0.355863  Biso 1.000000     N
    N   1.0     0.543567     0.146758     0.355862  Biso 1.000000     N
    N   1.0     0.251359     0.621599     0.351744  Biso 1.000000     N
    N   1.0     0.751351     0.621601     0.351744  Biso 1.000000     N
    N   1.0     0.456416     0.853245     0.355862  Biso 1.000000     N
    N   1.0     0.956407     0.853244     0.355863  Biso 1.000000     N
    N   1.0     0.248633     0.378403     0.351744  Biso 1.000000     N
    N   1.0     0.748623     0.378402     0.351743  Biso 1.000000     N
    N   1.0     0.043575     0.853246     0.855848  Biso 1.000000     N
    N   1.0     0.543566     0.853245     0.855847  Biso 1.000000     N
    N   1.0     0.251360     0.378404     0.851729  Biso 1.000000     N
    N   1.0     0.751351     0.378402     0.851728  Biso 1.000000     N
    N   1.0     0.456418     0.146759     0.855847  Biso 1.000000     N
    N   1.0     0.956410     0.146761     0.855848  Biso 1.000000     N
    N   1.0     0.248632     0.621601     0.851729  Biso 1.000000     N
    N   1.0     0.748623     0.621600     0.851729  Biso 1.000000     N
    N   1.0     0.456417     0.853244     0.644107  Biso 1.000000     N
    N   1.0     0.956407     0.853245     0.644109  Biso 1.000000     N
    N   1.0     0.248633     0.378403     0.648228  Biso 1.000000     N
    N   1.0     0.748625     0.378403     0.648227  Biso 1.000000     N
    N   1.0     0.043575     0.146758     0.644109  Biso 1.000000     N
    N   1.0     0.543567     0.146758     0.644108  Biso 1.000000     N
    N   1.0     0.251359     0.621601     0.648228  Biso 1.000000     N
    N   1.0     0.751350     0.621600     0.648228  Biso 1.000000     N
    N   1.0     0.345291     0.500001     0.250001  Biso 1.000000     N
    N   1.0     0.845282     0.500003     0.249988  Biso 1.000000     N
    N   1.0     0.154700     0.500002     0.249999  Biso 1.000000     N
    N   1.0     0.654691     0.500002     0.249984  Biso 1.000000     N
    N   1.0     0.154700     0.500002     0.749977  Biso 1.000000     N
    N   1.0     0.654691     0.500002     0.749971  Biso 1.000000     N
    N   1.0     0.345292     0.500002     0.749979  Biso 1.000000     N
    N   1.0     0.845283     0.500001     0.749974  Biso 1.000000     N
   Zn   1.0     0.249995     0.500001     0.249992  Biso 1.000000    Zn
   Zn   1.0     0.749986     0.500002     0.249993  Biso 1.000000    Zn
   Zn   1.0     0.249996     0.500002     0.749978  Biso 1.000000    Zn
   Zn   1.0     0.749987     0.500001     0.749978  Biso 1.000000    Zn
