#======================================================================

# CRYSTAL DATA

#----------------------------------------------------------------------

data_VESTA_phase_1


_pd_phase_name                         MOF
_cell_length_a                         22.97500
_cell_length_b                         12.54800
_cell_length_c                         14.85100
_cell_angle_alpha                      90.00000
_cell_angle_beta                       90.00000
_cell_angle_gamma                      90.00000
_symmetry_space_group_name_H-M         "P 1"
_symmetry_Int_Tables_number            1

loop_
_symmetry_equiv_pos_as_xyz
   "x, y, z"

loop_
   _atom_site_label
   _atom_site_occupancy
   _atom_site_fract_x
   _atom_site_fract_y
   _atom_site_fract_z
   _atom_site_adp_type
   _atom_site_B_iso_or_equiv
   _atom_site_type_symbol
    H   1.0     0.292443     0.833654     0.209752  Biso 1.000000     H
    H   1.0     0.792448     0.833653     0.209756  Biso 1.000000     H
    H   1.0     0.400286     0.842078     0.210265  Biso 1.000000     H
    H   1.0     0.900290     0.842079     0.210264  Biso 1.000000     H
    H   1.0     0.091263     0.713385     0.145445  Biso 1.000000     H
    H   1.0     0.591267     0.713384     0.145444  Biso 1.000000     H
    H   1.0     0.164557     0.571821     0.145676  Biso 1.000000     H
    H   1.0     0.664561     0.571821     0.145676  Biso 1.000000     H
    H   1.0     0.207561     0.166337     0.209752  Biso 1.000000     H
    H   1.0     0.707566     0.166336     0.209748  Biso 1.000000     H
    H   1.0     0.099718     0.157913     0.210265  Biso 1.000000     H
    H   1.0     0.599723     0.157914     0.210266  Biso 1.000000     H
    H   1.0     0.408740     0.286607     0.145445  Biso 1.000000     H
    H   1.0     0.908744     0.286607     0.145445  Biso 1.000000     H
    H   1.0     0.335446     0.428170     0.145676  Biso 1.000000     H
    H   1.0     0.835450     0.428171     0.145677  Biso 1.000000     H
    H   1.0     0.207561     0.833654     0.290238  Biso 1.000000     H
    H   1.0     0.707565     0.833653     0.290234  Biso 1.000000     H
    H   1.0     0.099718     0.842078     0.289724  Biso 1.000000     H
    H   1.0     0.599722     0.842079     0.289726  Biso 1.000000     H
    H   1.0     0.408741     0.713385     0.354543  Biso 1.000000     H
    H   1.0     0.908745     0.713385     0.354544  Biso 1.000000     H
    H   1.0     0.335448     0.571821     0.354312  Biso 1.000000     H
    H   1.0     0.835452     0.571821     0.354312  Biso 1.000000     H
    H   1.0     0.292444     0.166337     0.290238  Biso 1.000000     H
    H   1.0     0.792448     0.166336     0.290243  Biso 1.000000     H
    H   1.0     0.400287     0.157913     0.289725  Biso 1.000000     H
    H   1.0     0.900291     0.157914     0.289724  Biso 1.000000     H
    H   1.0     0.091264     0.286607     0.354543  Biso 1.000000     H
    H   1.0     0.591269     0.286607     0.354543  Biso 1.000000     H
    H   1.0     0.164558     0.428170     0.354312  Biso 1.000000     H
    H   1.0     0.664562     0.428170     0.354311  Biso 1.000000     H
    H   1.0     0.207562     0.166339     0.790218  Biso 1.000000     H
    H   1.0     0.707566     0.166338     0.790222  Biso 1.000000     H
    H   1.0     0.099719     0.157911     0.789713  Biso 1.000000     H
    H   1.0     0.599723     0.157912     0.789710  Biso 1.000000     H
    H   1.0     0.408742     0.286607     0.854531  Biso 1.000000     H
    H   1.0     0.908746     0.286607     0.854531  Biso 1.000000     H
    H   1.0     0.335448     0.428170     0.854299  Biso 1.000000     H
    H   1.0     0.835452     0.428170     0.854299  Biso 1.000000     H
    H   1.0     0.292444     0.833655     0.790231  Biso 1.000000     H
    H   1.0     0.792448     0.833654     0.790225  Biso 1.000000     H
    H   1.0     0.400287     0.842077     0.789709  Biso 1.000000     H
    H   1.0     0.900291     0.842078     0.789711  Biso 1.000000     H
    H   1.0     0.091265     0.713385     0.854531  Biso 1.000000     H
    H   1.0     0.591269     0.713384     0.854531  Biso 1.000000     H
    H   1.0     0.164559     0.571821     0.854299  Biso 1.000000     H
    H   1.0     0.664563     0.571820     0.854299  Biso 1.000000     H
    H   1.0     0.292445     0.166339     0.709745  Biso 1.000000     H
    H   1.0     0.792449     0.166338     0.709739  Biso 1.000000     H
    H   1.0     0.400288     0.157911     0.710250  Biso 1.000000     H
    H   1.0     0.900292     0.157912     0.710251  Biso 1.000000     H
    H   1.0     0.091265     0.286606     0.645432  Biso 1.000000     H
    H   1.0     0.591268     0.286606     0.645432  Biso 1.000000     H
    H   1.0     0.164559     0.428170     0.645664  Biso 1.000000     H
    H   1.0     0.664562     0.428170     0.645664  Biso 1.000000     H
    H   1.0     0.207562     0.833655     0.709732  Biso 1.000000     H
    H   1.0     0.707566     0.833654     0.709736  Biso 1.000000     H
    H   1.0     0.099719     0.842076     0.710254  Biso 1.000000     H
    H   1.0     0.599723     0.842078     0.710251  Biso 1.000000     H
    H   1.0     0.408741     0.713385     0.645433  Biso 1.000000     H
    H   1.0     0.908745     0.713384     0.645433  Biso 1.000000     H
    H   1.0     0.335448     0.571821     0.645664  Biso 1.000000     H
    H   1.0     0.835451     0.571821     0.645664  Biso 1.000000     H
    C   1.0     0.017774     0.846842     0.079769  Biso 1.000000     C
    C   1.0     0.517778     0.846842     0.079769  Biso 1.000000     C
    C   1.0     0.211284     0.406106     0.079787  Biso 1.000000     C
    C   1.0     0.711288     0.406106     0.079787  Biso 1.000000     C
    C   1.0     0.313942     0.907833     0.228366  Biso 1.000000     C
    C   1.0     0.813946     0.907834     0.228367  Biso 1.000000     C
    C   1.0     0.374384     0.911536     0.228634  Biso 1.000000     C
    C   1.0     0.874388     0.911537     0.228632  Biso 1.000000     C
    C   1.0     0.107318     0.682767     0.081443  Biso 1.000000     C
    C   1.0     0.607322     0.682767     0.081442  Biso 1.000000     C
    C   1.0     0.148742     0.602394     0.081495  Biso 1.000000     C
    C   1.0     0.648746     0.602393     0.081495  Biso 1.000000     C
    C   1.0     0.482230     0.153149     0.079769  Biso 1.000000     C
    C   1.0     0.982234     0.153150     0.079769  Biso 1.000000     C
    C   1.0     0.288719     0.593885     0.079787  Biso 1.000000     C
    C   1.0     0.788723     0.593885     0.079787  Biso 1.000000     C
    C   1.0     0.186062     0.092158     0.228366  Biso 1.000000     C
    C   1.0     0.686066     0.092158     0.228366  Biso 1.000000     C
    C   1.0     0.125621     0.088455     0.228633  Biso 1.000000     C
    C   1.0     0.625625     0.088456     0.228635  Biso 1.000000     C
    C   1.0     0.392685     0.317224     0.081443  Biso 1.000000     C
    C   1.0     0.892689     0.317224     0.081443  Biso 1.000000     C
    C   1.0     0.351262     0.397598     0.081495  Biso 1.000000     C
    C   1.0     0.851266     0.397598     0.081495  Biso 1.000000     C
    C   1.0     0.482230     0.846842     0.420219  Biso 1.000000     C
    C   1.0     0.982234     0.846842     0.420219  Biso 1.000000     C
    C   1.0     0.288721     0.406106     0.420201  Biso 1.000000     C
    C   1.0     0.788725     0.406106     0.420201  Biso 1.000000     C
    C   1.0     0.186062     0.907833     0.271624  Biso 1.000000     C
    C   1.0     0.686066     0.907834     0.271624  Biso 1.000000     C
    C   1.0     0.125620     0.911536     0.271356  Biso 1.000000     C
    C   1.0     0.625625     0.911537     0.271358  Biso 1.000000     C
    C   1.0     0.392686     0.682767     0.418545  Biso 1.000000     C
    C   1.0     0.892690     0.682767     0.418546  Biso 1.000000     C
    C   1.0     0.351263     0.602393     0.418493  Biso 1.000000     C
    C   1.0     0.851267     0.602394     0.418493  Biso 1.000000     C
    C   1.0     0.017775     0.153150     0.420219  Biso 1.000000     C
    C   1.0     0.517779     0.153150     0.420219  Biso 1.000000     C
    C   1.0     0.211286     0.593885     0.420201  Biso 1.000000     C
    C   1.0     0.711289     0.593885     0.420201  Biso 1.000000     C
    C   1.0     0.313942     0.092158     0.271624  Biso 1.000000     C
    C   1.0     0.813947     0.092158     0.271625  Biso 1.000000     C
    C   1.0     0.374384     0.088455     0.271357  Biso 1.000000     C
    C   1.0     0.874389     0.088456     0.271355  Biso 1.000000     C
    C   1.0     0.107319     0.317224     0.418545  Biso 1.000000     C
    C   1.0     0.607323     0.317224     0.418545  Biso 1.000000     C
    C   1.0     0.148743     0.397598     0.418493  Biso 1.000000     C
    C   1.0     0.648747     0.397598     0.418493  Biso 1.000000     C
    C   1.0     0.482231     0.153149     0.920207  Biso 1.000000     C
    C   1.0     0.982235     0.153149     0.920207  Biso 1.000000     C
    C   1.0     0.288721     0.593885     0.920188  Biso 1.000000     C
    C   1.0     0.788725     0.593885     0.920188  Biso 1.000000     C
    C   1.0     0.186064     0.092157     0.771610  Biso 1.000000     C
    C   1.0     0.686067     0.092157     0.771609  Biso 1.000000     C
    C   1.0     0.125622     0.088453     0.771346  Biso 1.000000     C
    C   1.0     0.625626     0.088454     0.771342  Biso 1.000000     C
    C   1.0     0.392687     0.317224     0.918533  Biso 1.000000     C
    C   1.0     0.892691     0.317224     0.918533  Biso 1.000000     C
    C   1.0     0.351264     0.397598     0.918481  Biso 1.000000     C
    C   1.0     0.851268     0.397598     0.918481  Biso 1.000000     C
    C   1.0     0.017775     0.846842     0.920207  Biso 1.000000     C
    C   1.0     0.517780     0.846842     0.920207  Biso 1.000000     C
    C   1.0     0.211286     0.406106     0.920189  Biso 1.000000     C
    C   1.0     0.711290     0.406105     0.920189  Biso 1.000000     C
    C   1.0     0.313943     0.907833     0.771611  Biso 1.000000     C
    C   1.0     0.813947     0.907833     0.771610  Biso 1.000000     C
    C   1.0     0.374385     0.911535     0.771340  Biso 1.000000     C
    C   1.0     0.874389     0.911536     0.771342  Biso 1.000000     C
    C   1.0     0.107320     0.682767     0.918533  Biso 1.000000     C
    C   1.0     0.607324     0.682767     0.918533  Biso 1.000000     C
    C   1.0     0.148743     0.602393     0.918481  Biso 1.000000     C
    C   1.0     0.648747     0.602393     0.918481  Biso 1.000000     C
    C   1.0     0.017776     0.153149     0.579757  Biso 1.000000     C
    C   1.0     0.517779     0.153149     0.579756  Biso 1.000000     C
    C   1.0     0.211286     0.593885     0.579775  Biso 1.000000     C
    C   1.0     0.711289     0.593885     0.579775  Biso 1.000000     C
    C   1.0     0.313943     0.092157     0.728353  Biso 1.000000     C
    C   1.0     0.813948     0.092157     0.728352  Biso 1.000000     C
    C   1.0     0.374385     0.088453     0.728617  Biso 1.000000     C
    C   1.0     0.874389     0.088454     0.728619  Biso 1.000000     C
    C   1.0     0.107320     0.317224     0.581431  Biso 1.000000     C
    C   1.0     0.607323     0.317224     0.581430  Biso 1.000000     C
    C   1.0     0.148743     0.397598     0.581483  Biso 1.000000     C
    C   1.0     0.648747     0.397597     0.581482  Biso 1.000000     C
    C   1.0     0.482231     0.846841     0.579757  Biso 1.000000     C
    C   1.0     0.982235     0.846841     0.579757  Biso 1.000000     C
    C   1.0     0.288721     0.406105     0.579775  Biso 1.000000     C
    C   1.0     0.788725     0.406105     0.579774  Biso 1.000000     C
    C   1.0     0.186063     0.907832     0.728352  Biso 1.000000     C
    C   1.0     0.686067     0.907833     0.728351  Biso 1.000000     C
    C   1.0     0.125621     0.911534     0.728623  Biso 1.000000     C
    C   1.0     0.625625     0.911536     0.728619  Biso 1.000000     C
    C   1.0     0.392686     0.682767     0.581431  Biso 1.000000     C
    C   1.0     0.892690     0.682767     0.581431  Biso 1.000000     C
    C   1.0     0.351263     0.602393     0.581483  Biso 1.000000     C
    C   1.0     0.851267     0.602393     0.581483  Biso 1.000000     C
    C   1.0     0.282196     0.000001     0.249995  Biso 1.000000     C
    C   1.0     0.782200     0.000002     0.249994  Biso 1.000000     C
    C   1.0     0.217809     0.000001     0.249995  Biso 1.000000     C
    C   1.0     0.717813     0.000002     0.249997  Biso 1.000000     C
    C   1.0     0.217810    -0.000001     0.749984  Biso 1.000000     C
    C   1.0     0.717814     0.000000     0.749981  Biso 1.000000     C
    C   1.0     0.282197    -0.000001     0.749979  Biso 1.000000     C
    C   1.0     0.782201     0.000000     0.749980  Biso 1.000000     C
    C   1.0     0.085241     0.724296     0.999976  Biso 1.000000     C
    C   1.0     0.585244     0.724295    -0.000000  Biso 1.000000     C
    C   1.0     0.216334     0.474518     0.000000  Biso 1.000000     C
    C   1.0     0.716340     0.474518     0.999976  Biso 1.000000     C
    C   1.0     0.169754     0.560931     0.000000  Biso 1.000000     C
    C   1.0     0.669758     0.560931    -0.000000  Biso 1.000000     C
    C   1.0     0.040429     0.806541     0.999976  Biso 1.000000     C
    C   1.0     0.540433     0.806540     0.999975  Biso 1.000000     C
    C   1.0     0.414764     0.275696     0.000000  Biso 1.000000     C
    C   1.0     0.914768     0.275696     0.000001  Biso 1.000000     C
    C   1.0     0.283670     0.525473    -0.000000  Biso 1.000000     C
    C   1.0     0.783674     0.525473    -0.000000  Biso 1.000000     C
    C   1.0     0.330249     0.439059     0.000000  Biso 1.000000     C
    C   1.0     0.830253     0.439060     0.000000  Biso 1.000000     C
    C   1.0     0.459576     0.193451     0.000000  Biso 1.000000     C
    C   1.0     0.959580     0.193451     0.000001  Biso 1.000000     C
    C   1.0     0.414765     0.724295     0.499988  Biso 1.000000     C
    C   1.0     0.914769     0.724295     0.499988  Biso 1.000000     C
    C   1.0     0.283671     0.474518     0.499988  Biso 1.000000     C
    C   1.0     0.783675     0.474518     0.499988  Biso 1.000000     C
    C   1.0     0.330250     0.560931     0.499988  Biso 1.000000     C
    C   1.0     0.830254     0.560931     0.499988  Biso 1.000000     C
    C   1.0     0.459577     0.806540     0.499988  Biso 1.000000     C
    C   1.0     0.959581     0.806540     0.499988  Biso 1.000000     C
    C   1.0     0.085241     0.275696     0.499988  Biso 1.000000     C
    C   1.0     0.585245     0.275696     0.499988  Biso 1.000000     C
    C   1.0     0.216335     0.525473     0.499988  Biso 1.000000     C
    C   1.0     0.716339     0.525473     0.499988  Biso 1.000000     C
    C   1.0     0.169756     0.439060     0.499988  Biso 1.000000     C
    C   1.0     0.669760     0.439059     0.499988  Biso 1.000000     C
    C   1.0     0.040429     0.193451     0.499988  Biso 1.000000     C
    C   1.0     0.540433     0.193451     0.499988  Biso 1.000000     C
    N   1.0     0.206191     0.353291     0.143861  Biso 1.000000     N
    N   1.0     0.706195     0.353291     0.143861  Biso 1.000000     N
    N   1.0    -0.001431     0.878420     0.148259  Biso 1.000000     N
    N   1.0     0.498573     0.878420     0.148259  Biso 1.000000     N
    N   1.0     0.293812     0.646701     0.143860  Biso 1.000000     N
    N   1.0     0.793816     0.646702     0.143860  Biso 1.000000     N
    N   1.0     0.501436     0.121572     0.148259  Biso 1.000000     N
    N   1.0     0.000000     0.121572     0.148259  Biso 1.000000     N
    N   1.0     0.293814     0.353291     0.356127  Biso 1.000000     N
    N   1.0     0.793818     0.353291     0.356127  Biso 1.000000     N
    N   1.0     0.501436     0.878419     0.351729  Biso 1.000000     N
    N   1.0     0.000000     0.878419     0.351729  Biso 1.000000     N
    N   1.0     0.206192     0.646702     0.356128  Biso 1.000000     N
    N   1.0     0.706196     0.646702     0.356128  Biso 1.000000     N
    N   1.0    -0.001430     0.121572     0.351729  Biso 1.000000     N
    N   1.0     0.498573     0.121572     0.351728  Biso 1.000000     N
    N   1.0     0.293814     0.646700     0.856114  Biso 1.000000     N
    N   1.0     0.793818     0.646700     0.856114  Biso 1.000000     N
    N   1.0     0.501437     0.121571     0.851717  Biso 1.000000     N
    N   1.0     0.000000     0.121571     0.851717  Biso 1.000000     N
    N   1.0     0.206193     0.353290     0.856115  Biso 1.000000     N
    N   1.0     0.706197     0.353289     0.856115  Biso 1.000000     N
    N   1.0    -0.001430     0.878419     0.851717  Biso 1.000000     N
    N   1.0     0.498574     0.878419     0.851716  Biso 1.000000     N
    N   1.0     0.206193     0.646700     0.643849  Biso 1.000000     N
    N   1.0     0.706196     0.646700     0.643849  Biso 1.000000     N
    N   1.0    -0.001429     0.121571     0.648247  Biso 1.000000     N
    N   1.0     0.498574     0.121571     0.648247  Biso 1.000000     N
    N   1.0     0.293814     0.353289     0.643848  Biso 1.000000     N
    N   1.0     0.793818     0.353289     0.643848  Biso 1.000000     N
    N   1.0     0.501436     0.878419     0.648247  Biso 1.000000     N
    N   1.0     0.000000     0.878418     0.648247  Biso 1.000000     N
    N   1.0     0.404662     0.000001     0.249995  Biso 1.000000     N
    N   1.0     0.904666    -0.000001     0.250001  Biso 1.000000     N
    N   1.0     0.095343     0.000001     0.249994  Biso 1.000000     N
    N   1.0     0.595347    -0.000001     0.249989  Biso 1.000000     N
    N   1.0     0.095344     0.000003     0.749973  Biso 1.000000     N
    N   1.0     0.595348     0.000001     0.749979  Biso 1.000000     N
    N   1.0     0.404663     0.000004     0.749990  Biso 1.000000     N
    N   1.0     0.904667     0.000001     0.749983  Biso 1.000000     N
   Zn   1.0     0.000000     0.000000     0.249994  Biso 1.000000    Zn
   Zn   1.0     0.500005     0.000000     0.249994  Biso 1.000000    Zn
   Zn   1.0     0.000001     0.000000     0.749982  Biso 1.000000    Zn
   Zn   1.0     0.500005     0.000000     0.749982  Biso 1.000000    Zn
