#======================================================================

# CRYSTAL DATA

#----------------------------------------------------------------------

data_VESTA_phase_1


_pd_phase_name                         MOF
_cell_length_a                         22.97300
_cell_length_b                         12.54700
_cell_length_c                         14.84600
_cell_angle_alpha                      90.00000
_cell_angle_beta                       90.00000
_cell_angle_gamma                      90.00000
_symmetry_space_group_name_H-M         "P 1"
_symmetry_Int_Tables_number            1

loop_
_symmetry_equiv_pos_as_xyz
   "x, y, z"

loop_
   _atom_site_label
   _atom_site_occupancy
   _atom_site_fract_x
   _atom_site_fract_y
   _atom_site_fract_z
   _atom_site_adp_type
   _atom_site_B_iso_or_equiv
   _atom_site_type_symbol
    H   1.0     0.340931     0.212468     0.145499  Biso 1.000000     H
    H   1.0     0.840920     0.212468     0.145500  Biso 1.000000     H
    H   1.0     0.414392     0.071159     0.145717  Biso 1.000000     H
    H   1.0     0.914382     0.071159     0.145717  Biso 1.000000     H
    H   1.0     0.457546     0.333678     0.290359  Biso 1.000000     H
    H   1.0     0.957535     0.333678     0.290355  Biso 1.000000     H
    H   1.0     0.349690     0.342099     0.289834  Biso 1.000000     H
    H   1.0     0.849680     0.342099     0.289833  Biso 1.000000     H
    H   1.0     0.159060     0.787527     0.145500  Biso 1.000000     H
    H   1.0     0.659049     0.787526     0.145500  Biso 1.000000     H
    H   1.0     0.085599     0.928836     0.145717  Biso 1.000000     H
    H   1.0     0.585588     0.928835     0.145717  Biso 1.000000     H
    H   1.0     0.042446     0.666317     0.290355  Biso 1.000000     H
    H   1.0     0.542435     0.666317     0.290358  Biso 1.000000     H
    H   1.0     0.150301     0.657896     0.289834  Biso 1.000000     H
    H   1.0     0.650291     0.657896     0.289834  Biso 1.000000     H
    H   1.0     0.159059     0.212469     0.354513  Biso 1.000000     H
    H   1.0     0.659048     0.212469     0.354514  Biso 1.000000     H
    H   1.0     0.085597     0.071160     0.354296  Biso 1.000000     H
    H   1.0     0.585586     0.071159     0.354296  Biso 1.000000     H
    H   1.0     0.042446     0.333678     0.209664  Biso 1.000000     H
    H   1.0     0.542434     0.333678     0.209668  Biso 1.000000     H
    H   1.0     0.150301     0.342099     0.210186  Biso 1.000000     H
    H   1.0     0.650290     0.342099     0.210186  Biso 1.000000     H
    H   1.0     0.340933     0.787527     0.354513  Biso 1.000000     H
    H   1.0     0.840922     0.787526     0.354513  Biso 1.000000     H
    H   1.0     0.414394     0.928836     0.354296  Biso 1.000000     H
    H   1.0     0.914383     0.928835     0.354296  Biso 1.000000     H
    H   1.0     0.457546     0.666317     0.209668  Biso 1.000000     H
    H   1.0     0.957535     0.666317     0.209663  Biso 1.000000     H
    H   1.0     0.349690     0.657895     0.210185  Biso 1.000000     H
    H   1.0     0.849679     0.657895     0.210185  Biso 1.000000     H
    H   1.0     0.159061     0.787526     0.854526  Biso 1.000000     H
    H   1.0     0.659050     0.787527     0.854526  Biso 1.000000     H
    H   1.0     0.085599     0.928836     0.854309  Biso 1.000000     H
    H   1.0     0.585588     0.928836     0.854309  Biso 1.000000     H
    H   1.0     0.042446     0.666317     0.709668  Biso 1.000000     H
    H   1.0     0.542434     0.666317     0.709676  Biso 1.000000     H
    H   1.0     0.150302     0.657895     0.710190  Biso 1.000000     H
    H   1.0     0.650290     0.657896     0.710195  Biso 1.000000     H
    H   1.0     0.340931     0.212468     0.854526  Biso 1.000000     H
    H   1.0     0.840921     0.212468     0.854526  Biso 1.000000     H
    H   1.0     0.414393     0.071159     0.854309  Biso 1.000000     H
    H   1.0     0.914382     0.071159     0.854309  Biso 1.000000     H
    H   1.0     0.457546     0.333677     0.709676  Biso 1.000000     H
    H   1.0     0.957535     0.333678     0.709669  Biso 1.000000     H
    H   1.0     0.349691     0.342099     0.710193  Biso 1.000000     H
    H   1.0     0.849680     0.342099     0.710193  Biso 1.000000     H
    H   1.0     0.340932     0.787526     0.645512  Biso 1.000000     H
    H   1.0     0.840922     0.787526     0.645512  Biso 1.000000     H
    H   1.0     0.414394     0.928835     0.645730  Biso 1.000000     H
    H   1.0     0.914383     0.928835     0.645730  Biso 1.000000     H
    H   1.0     0.457545     0.666316     0.790367  Biso 1.000000     H
    H   1.0     0.957535     0.666317     0.790361  Biso 1.000000     H
    H   1.0     0.349690     0.657895     0.789841  Biso 1.000000     H
    H   1.0     0.849679     0.657895     0.789842  Biso 1.000000     H
    H   1.0     0.159059     0.212468     0.645513  Biso 1.000000     H
    H   1.0     0.659048     0.212469     0.645513  Biso 1.000000     H
    H   1.0     0.085597     0.071159     0.645730  Biso 1.000000     H
    H   1.0     0.585587     0.071159     0.645730  Biso 1.000000     H
    H   1.0     0.042445     0.333678     0.790360  Biso 1.000000     H
    H   1.0     0.542436     0.333678     0.790368  Biso 1.000000     H
    H   1.0     0.150301     0.342099     0.789839  Biso 1.000000     H
    H   1.0     0.650291     0.342100     0.789844  Biso 1.000000     H
    C   1.0     0.436044     0.407849     0.271699  Biso 1.000000     C
    C   1.0     0.936033     0.407851     0.271705  Biso 1.000000     C
    C   1.0     0.375597     0.411547     0.271425  Biso 1.000000     C
    C   1.0     0.875586     0.411545     0.271417  Biso 1.000000     C
    C   1.0     0.267676     0.346417     0.079783  Biso 1.000000     C
    C   1.0     0.767665     0.346417     0.079783  Biso 1.000000     C
    C   1.0     0.357011     0.181888     0.081475  Biso 1.000000     C
    C   1.0     0.857000     0.181887     0.081475  Biso 1.000000     C
    C   1.0     0.398527     0.101665     0.081519  Biso 1.000000     C
    C   1.0     0.898517     0.101665     0.081518  Biso 1.000000     C
    C   1.0     0.461501     0.905792     0.079825  Biso 1.000000     C
    C   1.0     0.961491     0.905792     0.079824  Biso 1.000000     C
    C   1.0     0.063948     0.592147     0.271694  Biso 1.000000     C
    C   1.0     0.563937     0.592147     0.271692  Biso 1.000000     C
    C   1.0     0.124394     0.588446     0.271428  Biso 1.000000     C
    C   1.0     0.624384     0.588445     0.271432  Biso 1.000000     C
    C   1.0     0.232315     0.653578     0.079783  Biso 1.000000     C
    C   1.0     0.732305     0.653578     0.079783  Biso 1.000000     C
    C   1.0     0.142980     0.818107     0.081475  Biso 1.000000     C
    C   1.0     0.642970     0.818108     0.081475  Biso 1.000000     C
    C   1.0     0.101464     0.898330     0.081519  Biso 1.000000     C
    C   1.0     0.601452     0.898328     0.081519  Biso 1.000000     C
    C   1.0     0.038489     0.094202     0.079824  Biso 1.000000     C
    C   1.0     0.538478     0.094202     0.079824  Biso 1.000000     C
    C   1.0     0.063947     0.407850     0.228322  Biso 1.000000     C
    C   1.0     0.563937     0.407850     0.228321  Biso 1.000000     C
    C   1.0     0.124394     0.411547     0.228596  Biso 1.000000     C
    C   1.0     0.624384     0.411546     0.228600  Biso 1.000000     C
    C   1.0     0.232315     0.346415     0.420231  Biso 1.000000     C
    C   1.0     0.732303     0.346416     0.420230  Biso 1.000000     C
    C   1.0     0.142978     0.181888     0.418538  Biso 1.000000     C
    C   1.0     0.642968     0.181887     0.418538  Biso 1.000000     C
    C   1.0     0.101462     0.101666     0.418495  Biso 1.000000     C
    C   1.0     0.601451     0.101667     0.418495  Biso 1.000000     C
    C   1.0     0.038491     0.905793     0.420188  Biso 1.000000     C
    C   1.0     0.538480     0.905793     0.420189  Biso 1.000000     C
    C   1.0     0.436044     0.592146     0.228327  Biso 1.000000     C
    C   1.0     0.936033     0.592148     0.228332  Biso 1.000000     C
    C   1.0     0.375597     0.588446     0.228593  Biso 1.000000     C
    C   1.0     0.875587     0.588445     0.228585  Biso 1.000000     C
    C   1.0     0.267677     0.653579     0.420230  Biso 1.000000     C
    C   1.0     0.767666     0.653579     0.420230  Biso 1.000000     C
    C   1.0     0.357013     0.818107     0.418538  Biso 1.000000     C
    C   1.0     0.857002     0.818107     0.418538  Biso 1.000000     C
    C   1.0     0.398530     0.898329     0.418495  Biso 1.000000     C
    C   1.0     0.898519     0.898329     0.418495  Biso 1.000000     C
    C   1.0     0.461501     0.094202     0.420189  Biso 1.000000     C
    C   1.0     0.961490     0.094202     0.420189  Biso 1.000000     C
    C   1.0     0.063948     0.592149     0.728338  Biso 1.000000     C
    C   1.0     0.563937     0.592143     0.728324  Biso 1.000000     C
    C   1.0     0.124394     0.588443     0.728588  Biso 1.000000     C
    C   1.0     0.624384     0.588450     0.728613  Biso 1.000000     C
    C   1.0     0.232315     0.653578     0.920243  Biso 1.000000     C
    C   1.0     0.732304     0.653577     0.920243  Biso 1.000000     C
    C   1.0     0.142980     0.818106     0.918551  Biso 1.000000     C
    C   1.0     0.642970     0.818109     0.918551  Biso 1.000000     C
    C   1.0     0.101464     0.898330     0.918507  Biso 1.000000     C
    C   1.0     0.601452     0.898328     0.918508  Biso 1.000000     C
    C   1.0     0.038490     0.094202     0.920201  Biso 1.000000     C
    C   1.0     0.538479     0.094202     0.920202  Biso 1.000000     C
    C   1.0     0.436044     0.407848     0.728334  Biso 1.000000     C
    C   1.0     0.936033     0.407853     0.728317  Biso 1.000000     C
    C   1.0     0.375597     0.411548     0.728601  Biso 1.000000     C
    C   1.0     0.875586     0.411544     0.728611  Biso 1.000000     C
    C   1.0     0.267676     0.346417     0.920243  Biso 1.000000     C
    C   1.0     0.767666     0.346417     0.920243  Biso 1.000000     C
    C   1.0     0.357012     0.181888     0.918551  Biso 1.000000     C
    C   1.0     0.857001     0.181887     0.918551  Biso 1.000000     C
    C   1.0     0.398528     0.101665     0.918507  Biso 1.000000     C
    C   1.0     0.898518     0.101666     0.918508  Biso 1.000000     C
    C   1.0     0.461502     0.905792     0.920202  Biso 1.000000     C
    C   1.0     0.961491     0.905792     0.920202  Biso 1.000000     C
    C   1.0     0.436044     0.592145     0.771706  Biso 1.000000     C
    C   1.0     0.936034     0.592149     0.771690  Biso 1.000000     C
    C   1.0     0.375597     0.588447     0.771434  Biso 1.000000     C
    C   1.0     0.875587     0.588444     0.771444  Biso 1.000000     C
    C   1.0     0.267677     0.653579     0.579795  Biso 1.000000     C
    C   1.0     0.767666     0.653580     0.579796  Biso 1.000000     C
    C   1.0     0.357013     0.818107     0.581488  Biso 1.000000     C
    C   1.0     0.857002     0.818107     0.581488  Biso 1.000000     C
    C   1.0     0.398530     0.898329     0.581531  Biso 1.000000     C
    C   1.0     0.898519     0.898328     0.581531  Biso 1.000000     C
    C   1.0     0.461500     0.094202     0.579838  Biso 1.000000     C
    C   1.0     0.961490     0.094202     0.579837  Biso 1.000000     C
    C   1.0     0.063948     0.407852     0.771710  Biso 1.000000     C
    C   1.0     0.563937     0.407846     0.771696  Biso 1.000000     C
    C   1.0     0.124394     0.411544     0.771421  Biso 1.000000     C
    C   1.0     0.624383     0.411551     0.771446  Biso 1.000000     C
    C   1.0     0.232315     0.346415     0.579796  Biso 1.000000     C
    C   1.0     0.732304     0.346415     0.579796  Biso 1.000000     C
    C   1.0     0.142978     0.181888     0.581488  Biso 1.000000     C
    C   1.0     0.642968     0.181887     0.581488  Biso 1.000000     C
    C   1.0     0.101462     0.101665     0.581531  Biso 1.000000     C
    C   1.0     0.601451     0.101667     0.581531  Biso 1.000000     C
    C   1.0     0.038491     0.905792     0.579837  Biso 1.000000     C
    C   1.0     0.538480     0.905793     0.579837  Biso 1.000000     C
    C   1.0     0.467793     0.499997     0.250011  Biso 1.000000     C
    C   1.0     0.967782     0.499994     0.250001  Biso 1.000000     C
    C   1.0     0.032198     0.499997     0.250012  Biso 1.000000     C
    C   1.0     0.532187     0.499995     0.250019  Biso 1.000000     C
    C   1.0     0.032198     0.499994     0.750003  Biso 1.000000     C
    C   1.0     0.532188     0.500002     0.750032  Biso 1.000000     C
    C   1.0     0.467793     0.499997     0.750020  Biso 1.000000     C
    C   1.0     0.967783     0.499993     0.750026  Biso 1.000000     C
    C   1.0     0.290198     0.305811     0.000000  Biso 1.000000     C
    C   1.0     0.790186     0.305810     0.000000  Biso 1.000000     C
    C   1.0     0.334948     0.223445     0.000000  Biso 1.000000     C
    C   1.0     0.834938     0.223446     0.000000  Biso 1.000000     C
    C   1.0     0.419601     0.060288     0.000000  Biso 1.000000     C
    C   1.0     0.919591     0.060287     0.000000  Biso 1.000000     C
    C   1.0     0.466373     0.974223     0.000000  Biso 1.000000     C
    C   1.0     0.966363     0.974223     0.000000  Biso 1.000000     C
    C   1.0     0.209793     0.694184     0.000000  Biso 1.000000     C
    C   1.0     0.709783     0.694185     0.000000  Biso 1.000000     C
    C   1.0     0.165043     0.776550     0.000000  Biso 1.000000     C
    C   1.0     0.665030     0.776547     0.000000  Biso 1.000000     C
    C   1.0     0.080389     0.939706     0.000000  Biso 1.000000     C
    C   1.0     0.580379     0.939707     0.000000  Biso 1.000000     C
    C   1.0     0.033617     0.025771    -0.000000  Biso 1.000000     C
    C   1.0     0.533606     0.025770     0.000000  Biso 1.000000     C
    C   1.0     0.209793     0.305810     0.500013  Biso 1.000000     C
    C   1.0     0.709782     0.305810     0.500013  Biso 1.000000     C
    C   1.0     0.165041     0.223445     0.500013  Biso 1.000000     C
    C   1.0     0.665029     0.223447     0.500013  Biso 1.000000     C
    C   1.0     0.080388     0.060289     0.500013  Biso 1.000000     C
    C   1.0     0.580378     0.060288     0.500013  Biso 1.000000     C
    C   1.0     0.033619     0.974224     0.500013  Biso 1.000000     C
    C   1.0     0.533608     0.974224     0.500013  Biso 1.000000     C
    C   1.0     0.290199     0.694185     0.500013  Biso 1.000000     C
    C   1.0     0.790188     0.694185     0.500013  Biso 1.000000     C
    C   1.0     0.334951     0.776549     0.500013  Biso 1.000000     C
    C   1.0     0.834940     0.776548     0.500013  Biso 1.000000     C
    C   1.0     0.419603     0.939706     0.500013  Biso 1.000000     C
    C   1.0     0.919592     0.939706     0.500013  Biso 1.000000     C
    C   1.0     0.466373     0.025771     0.500013  Biso 1.000000     C
    C   1.0     0.966362     0.025771     0.500013  Biso 1.000000     C
    N   1.0     0.248575     0.378329     0.148256  Biso 1.000000     N
    N   1.0     0.748566     0.378329     0.148256  Biso 1.000000     N
    N   1.0     0.456571     0.852933     0.143927  Biso 1.000000     N
    N   1.0     0.956561     0.852933     0.143926  Biso 1.000000     N
    N   1.0     0.251415     0.621665     0.148256  Biso 1.000000     N
    N   1.0     0.751405     0.621666     0.148256  Biso 1.000000     N
    N   1.0     0.043419     0.147062     0.143926  Biso 1.000000     N
    N   1.0     0.543408     0.147061     0.143926  Biso 1.000000     N
    N   1.0     0.251415     0.378327     0.351757  Biso 1.000000     N
    N   1.0     0.751404     0.378328     0.351757  Biso 1.000000     N
    N   1.0     0.043421     0.852934     0.356086  Biso 1.000000     N
    N   1.0     0.543410     0.852934     0.356087  Biso 1.000000     N
    N   1.0     0.248577     0.621667     0.351757  Biso 1.000000     N
    N   1.0     0.748565     0.621667     0.351757  Biso 1.000000     N
    N   1.0     0.456571     0.147062     0.356087  Biso 1.000000     N
    N   1.0     0.956560     0.147061     0.356087  Biso 1.000000     N
    N   1.0     0.251415     0.621665     0.851770  Biso 1.000000     N
    N   1.0     0.751405     0.621665     0.851770  Biso 1.000000     N
    N   1.0     0.043420     0.147061     0.856099  Biso 1.000000     N
    N   1.0     0.543409     0.147061     0.856100  Biso 1.000000     N
    N   1.0     0.248576     0.378329     0.851769  Biso 1.000000     N
    N   1.0     0.748566     0.378329     0.851770  Biso 1.000000     N
    N   1.0     0.456572     0.852933     0.856100  Biso 1.000000     N
    N   1.0     0.956562     0.852933     0.856100  Biso 1.000000     N
    N   1.0     0.248576     0.621667     0.648268  Biso 1.000000     N
    N   1.0     0.748565     0.621667     0.648269  Biso 1.000000     N
    N   1.0     0.456570     0.147061     0.643940  Biso 1.000000     N
    N   1.0     0.956560     0.147061     0.643939  Biso 1.000000     N
    N   1.0     0.251415     0.378327     0.648269  Biso 1.000000     N
    N   1.0     0.751404     0.378327     0.648269  Biso 1.000000     N
    N   1.0     0.043421     0.852933     0.643939  Biso 1.000000     N
    N   1.0     0.543410     0.852934     0.643939  Biso 1.000000     N
    N   1.0     0.345319     0.499997     0.250010  Biso 1.000000     N
    N   1.0     0.845308     0.500000     0.250014  Biso 1.000000     N
    N   1.0     0.154672     0.499998     0.250007  Biso 1.000000     N
    N   1.0     0.654662     0.499999     0.250005  Biso 1.000000     N
    N   1.0     0.154672     0.500001     0.750024  Biso 1.000000     N
    N   1.0     0.654662     0.499994     0.750013  Biso 1.000000     N
    N   1.0     0.345319     0.499997     0.750020  Biso 1.000000     N
    N   1.0     0.845308     0.500001     0.750009  Biso 1.000000     N
   Zn   1.0     0.249996     0.499997     0.250007  Biso 1.000000    Zn
   Zn   1.0     0.749985     0.499997     0.250007  Biso 1.000000    Zn
   Zn   1.0     0.249996     0.499997     0.750019  Biso 1.000000    Zn
   Zn   1.0     0.749985     0.499997     0.750019  Biso 1.000000    Zn
