#======================================================================

# CRYSTAL DATA

#----------------------------------------------------------------------

data_VESTA_phase_1


_pd_phase_name                         MOF
_cell_length_a                         14.58500
_cell_length_b                         12.42300
_cell_length_c                         15.74200
_cell_angle_alpha                      89.95500
_cell_angle_beta                       89.77200
_cell_angle_gamma                      88.23200
_symmetry_space_group_name_H-M         "P 1"
_symmetry_Int_Tables_number            1

loop_
_symmetry_equiv_pos_as_xyz
   "x, y, z"

loop_
   _atom_site_label
   _atom_site_occupancy
   _atom_site_fract_x
   _atom_site_fract_y
   _atom_site_fract_z
   _atom_site_adp_type
   _atom_site_B_iso_or_equiv
   _atom_site_type_symbol
    H   1.0     0.440921     0.407940     0.594274  Biso 1.000000     H
    H   1.0     0.940955     0.407945     0.594271  Biso 1.000000     H
    H   1.0     0.388697     0.440900     0.495428  Biso 1.000000     H
    H   1.0     0.888735     0.440907     0.495427  Biso 1.000000     H
    H   1.0     0.353020     0.595811     0.628419  Biso 1.000000     H
    H   1.0     0.853056     0.595803     0.628419  Biso 1.000000     H
    H   1.0     0.343186     0.504170     0.713912  Biso 1.000000     H
    H   1.0     0.843221     0.504177     0.713917  Biso 1.000000     H
    H   1.0     0.242733     0.574861     0.675620  Biso 1.000000     H
    H   1.0     0.742769     0.574866     0.675623  Biso 1.000000     H
    H   1.0     0.059708     0.092312     0.094495  Biso 1.000000     H
    H   1.0     0.559740     0.092308     0.094492  Biso 1.000000     H
    H   1.0     0.112570     0.059288     0.995611  Biso 1.000000     H
    H   1.0     0.612601     0.059290     0.995603  Biso 1.000000     H
    H   1.0     0.146886     0.904181     0.128345  Biso 1.000000     H
    H   1.0     0.646915     0.904172     0.128330  Biso 1.000000     H
    H   1.0     0.156303     0.995488     0.213924  Biso 1.000000     H
    H   1.0     0.656338     0.995471     0.213914  Biso 1.000000     H
    H   1.0     0.256875     0.924588     0.175525  Biso 1.000000     H
    H   1.0     0.756905     0.924576     0.175506  Biso 1.000000     H
    H   1.0     0.059103     0.592063     0.405712  Biso 1.000000     H
    H   1.0     0.559136     0.592063     0.405710  Biso 1.000000     H
    H   1.0     0.111324     0.559097     0.504554  Biso 1.000000     H
    H   1.0     0.611364     0.559098     0.504552  Biso 1.000000     H
    H   1.0     0.146999     0.404188     0.371569  Biso 1.000000     H
    H   1.0     0.647041     0.404196     0.371561  Biso 1.000000     H
    H   1.0     0.156835     0.495828     0.286072  Biso 1.000000     H
    H   1.0     0.656869     0.495834     0.286064  Biso 1.000000     H
    H   1.0     0.257290     0.425132     0.324368  Biso 1.000000     H
    H   1.0     0.757325     0.425146     0.324359  Biso 1.000000     H
    H   1.0     0.440310     0.907698     0.905491  Biso 1.000000     H
    H   1.0     0.940340     0.907689     0.905491  Biso 1.000000     H
    H   1.0     0.387448     0.940711     0.004377  Biso 1.000000     H
    H   1.0     0.887476     0.940711     0.004374  Biso 1.000000     H
    H   1.0     0.353132     0.095820     0.871652  Biso 1.000000     H
    H   1.0     0.853162     0.095816     0.871640  Biso 1.000000     H
    H   1.0     0.343712     0.004524     0.786065  Biso 1.000000     H
    H   1.0     0.843746     0.004512     0.786058  Biso 1.000000     H
    H   1.0     0.243143     0.075419     0.824473  Biso 1.000000     H
    H   1.0     0.743174     0.075410     0.824461  Biso 1.000000     H
    C   1.0     0.374821     0.205840     0.616996  Biso 1.000000     C
    C   1.0     0.874857     0.205845     0.616996  Biso 1.000000     C
    C   1.0     0.374341     0.273793     0.535472  Biso 1.000000     C
    C   1.0     0.874365     0.273798     0.535472  Biso 1.000000     C
    C   1.0     0.376206     0.253658     0.696328  Biso 1.000000     C
    C   1.0     0.876241     0.253663     0.696325  Biso 1.000000     C
    C   1.0     0.373219     0.094328     0.612358  Biso 1.000000     C
    C   1.0     0.873252     0.094332     0.612345  Biso 1.000000     C
    C   1.0     0.293015     0.248665     0.483942  Biso 1.000000     C
    C   1.0     0.793039     0.248683     0.483939  Biso 1.000000     C
    C   1.0     0.455624     0.243283     0.483669  Biso 1.000000     C
    C   1.0     0.955638     0.243283     0.483659  Biso 1.000000     C
    C   1.0     0.379860     0.396021     0.555214  Biso 1.000000     C
    C   1.0     0.879894     0.396025     0.555210  Biso 1.000000     C
    C   1.0     0.293402     0.445013     0.596907  Biso 1.000000     C
    C   1.0     0.793440     0.445015     0.596905  Biso 1.000000     C
    C   1.0     0.308109     0.536015     0.656968  Biso 1.000000     C
    C   1.0     0.808142     0.536013     0.656971  Biso 1.000000     C
    C   1.0     0.125486     0.294191     0.117044  Biso 1.000000     C
    C   1.0     0.625522     0.294191     0.117038  Biso 1.000000     C
    C   1.0     0.126873     0.226346     0.035550  Biso 1.000000     C
    C   1.0     0.626884     0.226346     0.035542  Biso 1.000000     C
    C   1.0     0.125221     0.246226     0.196406  Biso 1.000000     C
    C   1.0     0.625259     0.246222     0.196400  Biso 1.000000     C
    C   1.0     0.125728     0.405772     0.112441  Biso 1.000000     C
    C   1.0     0.625759     0.405774     0.112446  Biso 1.000000     C
    C   1.0     0.208745     0.251508     0.984093  Biso 1.000000     C
    C   1.0     0.708759     0.251524     0.984095  Biso 1.000000     C
    C   1.0     0.046167     0.256833     0.983596  Biso 1.000000     C
    C   1.0     0.546174     0.256832     0.983593  Biso 1.000000     C
    C   1.0     0.121080     0.104119     0.055358  Biso 1.000000     C
    C   1.0     0.621111     0.104114     0.055352  Biso 1.000000     C
    C   1.0     0.207140     0.054864     0.096973  Biso 1.000000     C
    C   1.0     0.707175     0.054873     0.096975  Biso 1.000000     C
    C   1.0     0.191739     0.963706     0.156928  Biso 1.000000     C
    C   1.0     0.691768     0.963696     0.156913  Biso 1.000000     C
    C   1.0     0.125214     0.794159     0.382989  Biso 1.000000     C
    C   1.0     0.625237     0.794156     0.382991  Biso 1.000000     C
    C   1.0     0.125690     0.726209     0.464512  Biso 1.000000     C
    C   1.0     0.625722     0.726206     0.464517  Biso 1.000000     C
    C   1.0     0.123816     0.746339     0.303659  Biso 1.000000     C
    C   1.0     0.623846     0.746345     0.303657  Biso 1.000000     C
    C   1.0     0.126796     0.905672     0.387631  Biso 1.000000     C
    C   1.0     0.626838     0.905669     0.387627  Biso 1.000000     C
    C   1.0     0.207031     0.751328     0.516028  Biso 1.000000     C
    C   1.0     0.707051     0.751330     0.516041  Biso 1.000000     C
    C   1.0     0.044420     0.756709     0.516331  Biso 1.000000     C
    C   1.0     0.544428     0.756714     0.516309  Biso 1.000000     C
    C   1.0     0.120166     0.603983     0.444772  Biso 1.000000     C
    C   1.0     0.620200     0.603982     0.444768  Biso 1.000000     C
    C   1.0     0.206618     0.554970     0.403085  Biso 1.000000     C
    C   1.0     0.706659     0.554970     0.403091  Biso 1.000000     C
    C   1.0     0.191912     0.463978     0.343015  Biso 1.000000     C
    C   1.0     0.691948     0.463993     0.343007  Biso 1.000000     C
    C   1.0     0.374527     0.705809     0.882942  Biso 1.000000     C
    C   1.0     0.874564     0.705808     0.882942  Biso 1.000000     C
    C   1.0     0.373165     0.773647     0.964437  Biso 1.000000     C
    C   1.0     0.873182     0.773649     0.964436  Biso 1.000000     C
    C   1.0     0.374793     0.753773     0.803579  Biso 1.000000     C
    C   1.0     0.874829     0.753771     0.803579  Biso 1.000000     C
    C   1.0     0.374292     0.594225     0.887542  Biso 1.000000     C
    C   1.0     0.874327     0.594227     0.887536  Biso 1.000000     C
    C   1.0     0.291293     0.748478     0.015895  Biso 1.000000     C
    C   1.0     0.791306     0.748486     0.015888  Biso 1.000000     C
    C   1.0     0.453872     0.743175     0.016397  Biso 1.000000     C
    C   1.0     0.953890     0.743176     0.016391  Biso 1.000000     C
    C   1.0     0.378942     0.895879     0.944630  Biso 1.000000     C
    C   1.0     0.878969     0.895879     0.944628  Biso 1.000000     C
    C   1.0     0.292876     0.945135     0.903018  Biso 1.000000     C
    C   1.0     0.792907     0.945140     0.903018  Biso 1.000000     C
    C   1.0     0.308279     0.036298     0.843065  Biso 1.000000     C
    C   1.0     0.808311     0.036291     0.843055  Biso 1.000000     C
    N   1.0     0.377439     0.292261     0.764755  Biso 1.000000     N
    N   1.0     0.877476     0.292259     0.764756  Biso 1.000000     N
    N   1.0     0.371876    -0.000319     0.610005  Biso 1.000000     N
    N   1.0     0.871904    -0.000315     0.610002  Biso 1.000000     N
    N   1.0     0.235447     0.213815     0.441855  Biso 1.000000     N
    N   1.0     0.735480     0.213821     0.441846  Biso 1.000000     N
    N   1.0     0.020690     0.217143     0.444733  Biso 1.000000     N
    N   1.0     0.520709     0.217165     0.444737  Biso 1.000000     N
    N   1.0     0.124923     0.207559     0.264881  Biso 1.000000     N
    N   1.0     0.624947     0.207555     0.264876  Biso 1.000000     N
    N   1.0     0.125816     0.500485     0.110222  Biso 1.000000     N
    N   1.0     0.625831     0.500487     0.110223  Biso 1.000000     N
    N   1.0     0.266785     0.286320     0.942079  Biso 1.000000     N
    N   1.0     0.766842     0.286303     0.942116  Biso 1.000000     N
    N   1.0     0.481542     0.282776     0.944409  Biso 1.000000     N
    N   1.0     0.981551     0.282789     0.944440  Biso 1.000000     N
    N   1.0     0.122583     0.707735     0.235232  Biso 1.000000     N
    N   1.0     0.622615     0.707746     0.235228  Biso 1.000000     N
    N   1.0     0.128147     0.000000     0.389978  Biso 1.000000     N
    N   1.0     0.628187     0.000000     0.389985  Biso 1.000000     N
    N   1.0     0.264559     0.786221     0.558142  Biso 1.000000     N
    N   1.0     0.764606     0.786188     0.558139  Biso 1.000000     N
    N   1.0     0.479326     0.782827     0.555220  Biso 1.000000     N
    N   1.0     0.979352     0.782805     0.555251  Biso 1.000000     N
    N   1.0     0.375108     0.792438     0.735103  Biso 1.000000     N
    N   1.0     0.875134     0.792437     0.735104  Biso 1.000000     N
    N   1.0     0.374219     0.499513     0.889762  Biso 1.000000     N
    N   1.0     0.874239     0.499515     0.889751  Biso 1.000000     N
    N   1.0     0.233225     0.713676     0.057878  Biso 1.000000     N
    N   1.0     0.733252     0.713686     0.057892  Biso 1.000000     N
    N   1.0     0.018503     0.717239     0.055561  Biso 1.000000     N
    N   1.0     0.518507     0.717234     0.055576  Biso 1.000000     N
    O   1.0     0.217675     0.412372     0.578033  Biso 1.000000     O
    O   1.0     0.717713     0.412372     0.578034  Biso 1.000000     O
    O   1.0     0.283107     0.087355     0.078108  Biso 1.000000     O
    O   1.0     0.783146     0.087347     0.078107  Biso 1.000000     O
    O   1.0     0.282339     0.587630     0.421956  Biso 1.000000     O
    O   1.0     0.782383     0.587630     0.421951  Biso 1.000000     O
    O   1.0     0.216908     0.912648     0.921881  Biso 1.000000     O
    O   1.0     0.716941     0.912644     0.921877  Biso 1.000000     O
   Cu   1.0     0.374208     0.343257     0.881640  Biso 1.000000    Cu
   Cu   1.0     0.874220     0.343270     0.881623  Biso 1.000000    Cu
   Cu   1.0     0.128812     0.156573     0.381745  Biso 1.000000    Cu
   Cu   1.0     0.628832     0.156572     0.381747  Biso 1.000000    Cu
   Cu   1.0     0.125813     0.656729     0.118361  Biso 1.000000    Cu
   Cu   1.0     0.625857     0.656737     0.118354  Biso 1.000000    Cu
   Cu   1.0     0.371235     0.843422     0.618240  Biso 1.000000    Cu
   Cu   1.0     0.871247     0.843439     0.618245  Biso 1.000000    Cu
