#======================================================================

# CRYSTAL DATA

#----------------------------------------------------------------------

data_VESTA_phase_1


_pd_phase_name                         MOF
_cell_length_a                         12.56300
_cell_length_b                         12.56200
_cell_length_c                         17.41100
_cell_angle_alpha                      111.77100
_cell_angle_beta                       111.79900
_cell_angle_gamma                      88.34500
_symmetry_space_group_name_H-M         "P 1"
_symmetry_Int_Tables_number            1

loop_
_symmetry_equiv_pos_as_xyz
   "x, y, z"

loop_
   _atom_site_label
   _atom_site_occupancy
   _atom_site_fract_x
   _atom_site_fract_y
   _atom_site_fract_z
   _atom_site_adp_type
   _atom_site_B_iso_or_equiv
   _atom_site_type_symbol
    H   1.0     0.905540     0.724101     0.778839  Biso 1.000000     H
    H   1.0     0.076680     0.826971     0.639508  Biso 1.000000     H
    H   1.0     0.834176     0.516786     0.500574  Biso 1.000000     H
    H   1.0     0.473944     0.155825     0.278872  Biso 1.000000     H
    H   1.0     0.576817     0.326890     0.139488  Biso 1.000000     H
    H   1.0     0.266745     0.084216     0.000491  Biso 1.000000     H
    H   1.0     0.872358     0.055363     0.779040  Biso 1.000000     H
    H   1.0     0.562360     0.812622     0.639990  Biso 1.000000     H
    H   1.0     0.665231     0.983767     0.500646  Biso 1.000000     H
    H   1.0     0.805032     0.122668     0.278908  Biso 1.000000     H
    H   1.0     0.562551     0.812507     0.140002  Biso 1.000000     H
    H   1.0     0.733655     0.915359     0.000643  Biso 1.000000     H
    H   1.0     0.973951     0.655814     0.278874  Biso 1.000000     H
    H   1.0     0.076820     0.826913     0.139503  Biso 1.000000     H
    H   1.0     0.766764     0.584232     0.000000  Biso 1.000000     H
    H   1.0     0.405536     0.224095     0.778848  Biso 1.000000     H
    H   1.0     0.576682     0.326956     0.639523  Biso 1.000000     H
    H   1.0     0.334182     0.016777     0.500585  Biso 1.000000     H
    H   1.0     0.305046     0.622686     0.278916  Biso 1.000000     H
    H   1.0     0.062573     0.312493     0.140021  Biso 1.000000     H
    H   1.0     0.233660     0.415368     0.000000  Biso 1.000000     H
    H   1.0     0.372373     0.555378     0.779050  Biso 1.000000     H
    H   1.0     0.062355     0.312634     0.640012  Biso 1.000000     H
    H   1.0     0.165234     0.483754     0.500656  Biso 1.000000     H
    C   1.0     0.860637     0.611341     0.639691  Biso 1.000000     C
    C   1.0     0.919351     0.708911     0.717652  Biso 1.000000     C
    C   1.0     0.996582     0.787055     0.717565  Biso 1.000000     C
    C   1.0     0.016262     0.766598     0.639550  Biso 1.000000     C
    C   1.0     0.958569     0.668889     0.561619  Biso 1.000000     C
    C   1.0     0.880276     0.591801     0.561703  Biso 1.000000     C
    C   1.0     0.777320     0.528229     0.639703  Biso 1.000000     C
    C   1.0     0.055151     0.894469     0.799423  Biso 1.000000     C
    C   1.0     0.984082     0.645018     0.479672  Biso 1.000000     C
    C   1.0     0.361207     0.110856     0.139683  Biso 1.000000     C
    C   1.0     0.458770     0.169598     0.217664  Biso 1.000000     C
    C   1.0     0.536898     0.246848     0.217582  Biso 1.000000     C
    C   1.0     0.516469     0.266451     0.139532  Biso 1.000000     C
    C   1.0     0.418778     0.208723     0.061578  Biso 1.000000     C
    C   1.0     0.341722     0.130385     0.061647  Biso 1.000000     C
    C   1.0     0.278157     0.027492     0.139700  Biso 1.000000     C
    C   1.0     0.644367     0.305338     0.299433  Biso 1.000000     C
    C   1.0     0.395005     0.234119     0.979598  Biso 1.000000     C
    C   1.0     0.777908     0.028723     0.639851  Biso 1.000000     C
    C   1.0     0.797390     0.000000     0.717883  Biso 1.000000     C
    C   1.0     0.720361     0.930820     0.717926  Biso 1.000000     C
    C   1.0     0.622686     0.873094     0.639958  Biso 1.000000     C
    C   1.0     0.602258     0.892695     0.561907  Biso 1.000000     C
    C   1.0     0.680371     0.969994     0.561851  Biso 1.000000     C
    C   1.0     0.860991     0.112108     0.639888  Biso 1.000000     C
    C   1.0     0.744168     0.905369     0.799907  Biso 1.000000     C
    C   1.0     0.494806     0.834118     0.480048  Biso 1.000000     C
    C   1.0     0.778538     0.028093     0.139785  Biso 1.000000     C
    C   1.0     0.758903     0.047663     0.217777  Biso 1.000000     C
    C   1.0     0.680636     0.970589     0.217873  Biso 1.000000     C
    C   1.0     0.622935     0.872892     0.139939  Biso 1.000000     C
    C   1.0     0.642600     0.852397     0.061917  Biso 1.000000     C
    C   1.0     0.719814     0.930550     0.061819  Biso 1.000000     C
    C   1.0     0.861898     0.111178     0.139793  Biso 1.000000     C
    C   1.0     0.655154    -0.005626     0.299829  Biso 1.000000     C
    C   1.0     0.584105     0.744934     0.980117  Biso 1.000000     C
    C   1.0     0.861213     0.610850     0.139685  Biso 1.000000     C
    C   1.0     0.958774     0.669592     0.217667  Biso 1.000000     C
    C   1.0     0.036908     0.746855     0.217591  Biso 1.000000     C
    C   1.0     0.016477     0.766464     0.139543  Biso 1.000000     C
    C   1.0     0.918778     0.708735     0.061587  Biso 1.000000     C
    C   1.0     0.841727     0.630388     0.061651  Biso 1.000000     C
    C   1.0     0.778165     0.527478     0.139696  Biso 1.000000     C
    C   1.0     0.144373     0.805351     0.299443  Biso 1.000000     C
    C   1.0     0.895007     0.734135     0.979609  Biso 1.000000     C
    C   1.0     0.360637     0.111334     0.639701  Biso 1.000000     C
    C   1.0     0.419355     0.208901     0.717664  Biso 1.000000     C
    C   1.0     0.496589     0.287043     0.717577  Biso 1.000000     C
    C   1.0     0.516265     0.266581     0.639564  Biso 1.000000     C
    C   1.0     0.458578     0.168877     0.561631  Biso 1.000000     C
    C   1.0     0.380285     0.091789     0.561716  Biso 1.000000     C
    C   1.0     0.277310     0.028224     0.639705  Biso 1.000000     C
    C   1.0     0.555145     0.394458     0.799435  Biso 1.000000     C
    C   1.0     0.484088     0.145014     0.479684  Biso 1.000000     C
    C   1.0     0.278544     0.528112     0.139792  Biso 1.000000     C
    C   1.0     0.258921     0.547675     0.217788  Biso 1.000000     C
    C   1.0     0.180653     0.470578     0.217887  Biso 1.000000     C
    C   1.0     0.122955     0.372876     0.139956  Biso 1.000000     C
    C   1.0     0.142607     0.352389     0.061929  Biso 1.000000     C
    C   1.0     0.219819     0.430542     0.061829  Biso 1.000000     C
    C   1.0     0.361894     0.611199     0.139792  Biso 1.000000     C
    C   1.0     0.155189     0.494391     0.299849  Biso 1.000000     C
    C   1.0     0.084101     0.244930     0.980127  Biso 1.000000     C
    C   1.0     0.277920     0.528734     0.639860  Biso 1.000000     C
    C   1.0     0.297396     0.509203     0.717894  Biso 1.000000     C
    C   1.0     0.220363     0.430825     0.717942  Biso 1.000000     C
    C   1.0     0.122684     0.373100     0.639977  Biso 1.000000     C
    C   1.0     0.102259     0.392692     0.561922  Biso 1.000000     C
    C   1.0     0.180373     0.469986     0.561863  Biso 1.000000     C
    C   1.0     0.361007     0.612110     0.639892  Biso 1.000000     C
    C   1.0     0.244172     0.405383     0.799928  Biso 1.000000     C
    C   1.0     0.994797     0.334110     0.480062  Biso 1.000000     C
    O   1.0     0.758569     0.423980     0.584065  Biso 1.000000     O
    O   1.0     0.728614     0.565295     0.695256  Biso 1.000000     O
    O   1.0     0.050414     0.902916     0.873137  Biso 1.000000     O
    O   1.0     0.105820     0.972928     0.790831  Biso 1.000000     O
    O   1.0     0.070714     0.704376     0.487743  Biso 1.000000     O
    O   1.0     0.918972     0.566007     0.406275  Biso 1.000000     O
    O   1.0     0.173906     0.008645     0.084001  Biso 1.000000     O
    O   1.0     0.315232    -0.021014     0.195418  Biso 1.000000     O
    O   1.0     0.722847     0.355958     0.290837  Biso 1.000000     O
    O   1.0     0.652778     0.300684     0.373170  Biso 1.000000     O
    O   1.0     0.316079     0.168929     0.906170  Biso 1.000000     O
    O   1.0     0.454248     0.320829     0.987685  Biso 1.000000     O
    O   1.0     0.823933     0.160831     0.584316  Biso 1.000000     O
    O   1.0     0.965266     0.130760     0.695519  Biso 1.000000     O
    O   1.0     0.823078     0.970566     0.873349  Biso 1.000000     O
    O   1.0     0.684947     0.818597     0.791764  Biso 1.000000     O
    O   1.0     0.416341     0.783494     0.488657  Biso 1.000000     O
    O   1.0     0.486352     0.838689     0.406281  Biso 1.000000     O
    O   1.0     0.910724     0.074034     0.084326  Biso 1.000000     O
    O   1.0     0.880521     0.215475     0.195335  Biso 1.000000     O
    O   1.0     0.568506     0.935033     0.291717  Biso 1.000000     O
    O   1.0     0.720285     0.073358     0.373240  Biso 1.000000     O
    O   1.0     0.588833     0.736379     0.906382  Biso 1.000000     O
    O   1.0     0.533415     0.666515     0.988737  Biso 1.000000     O
    O   1.0     0.673909     0.508652     0.084010  Biso 1.000000     O
    O   1.0     0.815246     0.478942     0.195393  Biso 1.000000     O
    O   1.0     0.152785     0.800691     0.373178  Biso 1.000000     O
    O   1.0     0.222849     0.855980     0.290849  Biso 1.000000     O
    O   1.0     0.954254     0.820845     0.987699  Biso 1.000000     O
    O   1.0     0.816081     0.668949     0.906180  Biso 1.000000     O
    O   1.0     0.258583     0.923990     0.584078  Biso 1.000000     O
    O   1.0     0.228586     0.065295     0.695246  Biso 1.000000     O
    O   1.0     0.605827     0.472911     0.790844  Biso 1.000000     O
    O   1.0     0.550410     0.402905     0.873149  Biso 1.000000     O
    O   1.0     0.418987     0.065997     0.406288  Biso 1.000000     O
    O   1.0     0.570707     0.204376     0.487757  Biso 1.000000     O
    O   1.0     0.410739     0.574048     0.084338  Biso 1.000000     O
    O   1.0     0.380501     0.715501     0.195324  Biso 1.000000     O
    O   1.0     0.220335     0.573368     0.373258  Biso 1.000000     O
    O   1.0     0.068544     0.435026     0.291749  Biso 1.000000     O
    O   1.0     0.033412     0.166510     0.988747  Biso 1.000000     O
    O   1.0     0.088838     0.236369     0.906394  Biso 1.000000     O
    O   1.0     0.323947     0.660843     0.584327  Biso 1.000000     O
    O   1.0     0.465287     0.630742     0.695510  Biso 1.000000     O
    O   1.0     0.184953     0.318614     0.791792  Biso 1.000000     O
    O   1.0     0.323084     0.470583     0.873367  Biso 1.000000     O
    O   1.0     0.986343     0.338682     0.406295  Biso 1.000000     O
    O   1.0     0.916336     0.283478     0.488669  Biso 1.000000     O
    Y   1.0     0.645887     0.646685     0.793036  Biso 1.000000     Y
    Y   1.0     0.145878     0.146690     0.793039  Biso 1.000000     Y
    Y   1.0     0.896642     0.395957     0.293032  Biso 1.000000     Y
    Y   1.0     0.396631     0.895981     0.293028  Biso 1.000000     Y
    Y   1.0     0.993337     0.992736     0.986467  Biso 1.000000     Y
    Y   1.0     0.242572     0.743496     0.486462  Biso 1.000000     Y
    Y   1.0     0.742553     0.243484     0.486452  Biso 1.000000     Y
    Y   1.0     0.493332     0.492719    -0.013546  Biso 1.000000     Y
