#======================================================================

# CRYSTAL DATA

#----------------------------------------------------------------------

data_VESTA_phase_1


_pd_phase_name                         MOF
_cell_length_a                         14.52800
_cell_length_b                         18.95500
_cell_length_c                         15.81000
_cell_angle_alpha                      90.01400
_cell_angle_beta                       90.07700
_cell_angle_gamma                      90.79400
_symmetry_space_group_name_H-M         "P 1"
_symmetry_Int_Tables_number            1

loop_
_symmetry_equiv_pos_as_xyz
   "x, y, z"

loop_
   _atom_site_label
   _atom_site_occupancy
   _atom_site_fract_x
   _atom_site_fract_y
   _atom_site_fract_z
   _atom_site_adp_type
   _atom_site_B_iso_or_equiv
   _atom_site_type_symbol
    H   1.0     0.051266    -0.016414     0.349801  Biso 1.000000     H
    H   1.0     0.111573     0.985576     0.615856  Biso 1.000000     H
    H   1.0     0.336335     0.756410     0.260032  Biso 1.000000     H
    H   1.0     0.608715     0.756341     0.366940  Biso 1.000000     H
    H   1.0     0.635387     0.636994     0.305307  Biso 1.000000     H
    H   1.0     0.362980     0.636392     0.198287  Biso 1.000000     H
    H   1.0     0.347178     0.965172     0.504543  Biso 1.000000     H
    H   1.0     0.947042     0.486991     0.147217  Biso 1.000000     H
    H   1.0     0.888279     0.483208     0.880946  Biso 1.000000     H
    H   1.0     0.658399     0.261675     0.239777  Biso 1.000000     H
    H   1.0     0.387640     0.253664     0.129582  Biso 1.000000     H
    H   1.0     0.361945     0.133402     0.190351  Biso 1.000000     H
    H   1.0     0.632881     0.140654     0.300514  Biso 1.000000     H
    H   1.0     0.649842     0.465255     0.992130  Biso 1.000000     H
    H   1.0     0.947803     0.000000     0.646680  Biso 1.000000     H
    H   1.0     0.887521     0.014583     0.380608  Biso 1.000000     H
    H   1.0     0.662093     0.242766     0.736559  Biso 1.000000     H
    H   1.0     0.389920     0.244197     0.629290  Biso 1.000000     H
    H   1.0     0.364163     0.363679     0.690888  Biso 1.000000     H
    H   1.0     0.636377     0.362907     0.798306  Biso 1.000000     H
    H   1.0     0.649531     0.034902     0.491597  Biso 1.000000     H
    H   1.0     0.053493     0.513304     0.850060  Biso 1.000000     H
    H   1.0     0.112299     0.517063     0.116319  Biso 1.000000     H
    H   1.0     0.339722     0.738565     0.759108  Biso 1.000000     H
    H   1.0     0.611555     0.747146     0.867021  Biso 1.000000     H
    H   1.0     0.636351     0.867277     0.805690  Biso 1.000000     H
    H   1.0     0.364456     0.859392     0.697628  Biso 1.000000     H
    H   1.0     0.350696     0.534797     0.004211  Biso 1.000000     H
    H   1.0     0.448349     0.000000     0.849766  Biso 1.000000     H
    H   1.0     0.388792     0.015234     0.115795  Biso 1.000000     H
    H   1.0     0.163740     0.243238     0.760350  Biso 1.000000     H
    H   1.0     0.891362     0.243729     0.866647  Biso 1.000000     H
    H   1.0     0.865029     0.363159     0.805049  Biso 1.000000     H
    H   1.0     0.137431     0.363324     0.698615  Biso 1.000000     H
    H   1.0     0.152692     0.034834     0.004480  Biso 1.000000     H
    H   1.0     0.555462     0.512901     0.646763  Biso 1.000000     H
    H   1.0     0.613165     0.517089     0.380410  Biso 1.000000     H
    H   1.0     0.841805     0.738091     0.736320  Biso 1.000000     H
    H   1.0     0.113837     0.747722     0.629513  Biso 1.000000     H
    H   1.0     0.137587     0.868054     0.690819  Biso 1.000000     H
    H   1.0     0.865479     0.859129     0.797765  Biso 1.000000     H
    H   1.0     0.851095     0.534857     0.492056  Biso 1.000000     H
    H   1.0     0.552617    -0.015679     0.146786  Biso 1.000000     H
    H   1.0     0.612129     0.985252     0.880743  Biso 1.000000     H
    H   1.0     0.838692     0.757341     0.235739  Biso 1.000000     H
    H   1.0     0.111807     0.756192     0.131097  Biso 1.000000     H
    H   1.0     0.137302     0.636808     0.193128  Biso 1.000000     H
    H   1.0     0.864117     0.637259     0.297805  Biso 1.000000     H
    H   1.0     0.850494     0.965042     0.991589  Biso 1.000000     H
    H   1.0     0.447874     0.487144     0.349577  Biso 1.000000     H
    H   1.0     0.390125     0.483030     0.615884  Biso 1.000000     H
    H   1.0     0.160810     0.261072     0.260015  Biso 1.000000     H
    H   1.0     0.888679     0.252969     0.366731  Biso 1.000000     H
    H   1.0     0.863767     0.132780     0.305437  Biso 1.000000     H
    H   1.0     0.135950     0.140184     0.198596  Biso 1.000000     H
    H   1.0     0.150569     0.465144     0.504692  Biso 1.000000     H
    C   1.0     0.189257     0.965471     0.463178  Biso 1.000000     C
    C   1.0     0.090960     0.982451     0.480971  Biso 1.000000     C
    C   1.0     0.027843    -0.009126     0.414555  Biso 1.000000     C
    C   1.0     0.062029     0.991817     0.564792  Biso 1.000000     C
    C   1.0     0.458907     0.836895     0.348356  Biso 1.000000     C
    C   1.0     0.471436     0.763730     0.316122  Biso 1.000000     C
    C   1.0     0.401364     0.729666     0.269709  Biso 1.000000     C
    C   1.0     0.555343     0.729705     0.330054  Biso 1.000000     C
    C   1.0     0.520751     0.561966     0.204310  Biso 1.000000     C
    C   1.0     0.501111     0.630176     0.247297  Biso 1.000000     C
    C   1.0     0.570152     0.663397     0.295776  Biso 1.000000     C
    C   1.0     0.416085     0.663117     0.235527  Biso 1.000000     C
    C   1.0     0.809134     0.466746     0.033710  Biso 1.000000     C
    C   1.0     0.908155     0.483107     0.015925  Biso 1.000000     C
    C   1.0     0.971178     0.492865     0.082417  Biso 1.000000     C
    C   1.0     0.937819     0.490550     0.932014  Biso 1.000000     C
    C   1.0     0.536589     0.338524     0.149758  Biso 1.000000     C
    C   1.0     0.524097     0.265070     0.182027  Biso 1.000000     C
    C   1.0     0.593951     0.232987     0.229209  Biso 1.000000     C
    C   1.0     0.440899     0.228585     0.167026  Biso 1.000000     C
    C   1.0     0.476512     0.061283     0.291978  Biso 1.000000     C
    C   1.0     0.495575     0.130338     0.249808  Biso 1.000000     C
    C   1.0     0.426643     0.161711     0.200810  Biso 1.000000     C
    C   1.0     0.579843     0.165869     0.262827  Biso 1.000000     C
    C   1.0     0.809714     0.034508     0.533239  Biso 1.000000     C
    C   1.0     0.908082     0.017592     0.515507  Biso 1.000000     C
    C   1.0     0.971214     0.000000     0.581921  Biso 1.000000     C
    C   1.0     0.937040     0.008285     0.431683  Biso 1.000000     C
    C   1.0     0.538854     0.162892     0.648016  Biso 1.000000     C
    C   1.0     0.526989     0.236122     0.680300  Biso 1.000000     C
    C   1.0     0.597301     0.269823     0.726805  Biso 1.000000     C
    C   1.0     0.443425     0.270573     0.666271  Biso 1.000000     C
    C   1.0     0.479165     0.438109     0.792056  Biso 1.000000     C
    C   1.0     0.498382     0.369815     0.749118  Biso 1.000000     C
    C   1.0     0.429139     0.336947     0.700539  Biso 1.000000     C
    C   1.0     0.583100     0.336449     0.760996  Biso 1.000000     C
    C   1.0     0.191408     0.533311     0.963233  Biso 1.000000     C
    C   1.0     0.092409     0.517154     0.981332  Biso 1.000000     C
    C   1.0     0.029358     0.507435     0.914856  Biso 1.000000     C
    C   1.0     0.062746     0.509746     0.065252  Biso 1.000000     C
    C   1.0     0.462680     0.661886     0.848054  Biso 1.000000     C
    C   1.0     0.474611     0.735400     0.815737  Biso 1.000000     C
    C   1.0     0.404229     0.767334     0.769050  Biso 1.000000     C
    C   1.0     0.557855     0.772050     0.829940  Biso 1.000000     C
    C   1.0     0.520901     0.938987     0.704500  Biso 1.000000     C
    C   1.0     0.502219     0.870039     0.747180  Biso 1.000000     C
    C   1.0     0.571618     0.838869     0.795819  Biso 1.000000     C
    C   1.0     0.417898     0.834367     0.735018  Biso 1.000000     C
    C   1.0     0.310659     0.034594     0.963117  Biso 1.000000     C
    C   1.0     0.409036     0.017797     0.980943  Biso 1.000000     C
    C   1.0     0.471946     0.000000     0.914552  Biso 1.000000     C
    C   1.0     0.438201     0.008766     0.064780  Biso 1.000000     C
    C   1.0     0.041096     0.163037     0.848405  Biso 1.000000     C
    C   1.0     0.028652     0.236183     0.816156  Biso 1.000000     C
    C   1.0     0.098811     0.270110     0.769903  Biso 1.000000     C
    C   1.0     0.944798     0.270304     0.829922  Biso 1.000000     C
    C   1.0     0.979839     0.437983     0.704533  Biso 1.000000     C
    C   1.0    -0.000624     0.369752     0.747415  Biso 1.000000     C
    C   1.0     0.930186     0.336644     0.795683  Biso 1.000000     C
    C   1.0     0.084286     0.336684     0.735745  Biso 1.000000     C
    C   1.0     0.693035     0.533280     0.533296  Biso 1.000000     C
    C   1.0     0.593907     0.517023     0.515458  Biso 1.000000     C
    C   1.0     0.531094     0.507185     0.581950  Biso 1.000000     C
    C   1.0     0.563847     0.509723     0.431529  Biso 1.000000     C
    C   1.0     0.965543     0.661924     0.648196  Biso 1.000000     C
    C   1.0     0.976885     0.735498     0.680327  Biso 1.000000     C
    C   1.0     0.906099     0.767151     0.726626  Biso 1.000000     C
    C   1.0     0.059896     0.772462     0.666342  Biso 1.000000     C
    C   1.0     0.021596     0.939110     0.791674  Biso 1.000000     C
    C   1.0     0.000000     0.870221     0.748790  Biso 1.000000     C
    C   1.0     0.073062     0.839360     0.700440  Biso 1.000000     C
    C   1.0     0.919164     0.834266     0.760630  Biso 1.000000     C
    C   1.0     0.690239     0.965562     0.033334  Biso 1.000000     C
    C   1.0     0.591901     0.982670     0.015596  Biso 1.000000     C
    C   1.0     0.529012    -0.008614     0.081995  Biso 1.000000     C
    C   1.0     0.562742     0.991757     0.931768  Biso 1.000000     C
    C   1.0     0.962085     0.837183     0.148106  Biso 1.000000     C
    C   1.0     0.974184     0.764089     0.180732  Biso 1.000000     C
    C   1.0     0.903607     0.730342     0.226645  Biso 1.000000     C
    C   1.0     0.058030     0.729788     0.167580  Biso 1.000000     C
    C   1.0     0.021429     0.562130     0.292772  Biso 1.000000     C
    C   1.0     0.000000     0.630503     0.249909  Biso 1.000000     C
    C   1.0     0.072171     0.663464     0.202056  Biso 1.000000     C
    C   1.0     0.917647     0.663765     0.261000  Biso 1.000000     C
    C   1.0     0.310252     0.466794     0.463079  Biso 1.000000     C
    C   1.0     0.409410     0.483101     0.480863  Biso 1.000000     C
    C   1.0     0.472229     0.492914     0.414382  Biso 1.000000     C
    C   1.0     0.439474     0.490398     0.564791  Biso 1.000000     C
    C   1.0     0.037646     0.338065     0.348146  Biso 1.000000     C
    C   1.0     0.025757     0.264490     0.315988  Biso 1.000000     C
    C   1.0     0.096213     0.232405     0.269700  Biso 1.000000     C
    C   1.0     0.942401     0.227942     0.329920  Biso 1.000000     C
    C   1.0     0.979203     0.060939     0.204633  Biso 1.000000     C
    C   1.0    -0.001965     0.129822     0.247478  Biso 1.000000     C
    C   1.0     0.928574     0.161102     0.295819  Biso 1.000000     C
    C   1.0     0.082477     0.165348     0.235691  Biso 1.000000     C
    O   1.0     0.527529     0.864163     0.388965  Biso 1.000000     O
    O   1.0     0.383207     0.867499     0.333128  Biso 1.000000     O
    O   1.0     0.214123     0.972013     0.384409  Biso 1.000000     O
    O   1.0     0.241801     0.947583     0.522693  Biso 1.000000     O
    O   1.0     0.457021     0.533797     0.159565  Biso 1.000000     O
    O   1.0     0.601818     0.537289     0.214238  Biso 1.000000     O
    O   1.0     0.402768     0.990746     0.477831  Biso 1.000000     O
    O   1.0     0.468708     0.363881     0.107621  Biso 1.000000     O
    O   1.0     0.611695     0.371045     0.166328  Biso 1.000000     O
    O   1.0     0.784481     0.475019     0.112311  Biso 1.000000     O
    O   1.0     0.756144     0.447784    -0.025429  Biso 1.000000     O
    O   1.0     0.540174     0.034291     0.336633  Biso 1.000000     O
    O   1.0     0.395663     0.034565     0.281571  Biso 1.000000     O
    O   1.0     0.595444     0.490945     0.018704  Biso 1.000000     O
    O   1.0     0.469891     0.135911     0.607554  Biso 1.000000     O
    O   1.0     0.614367     0.132049     0.663121  Biso 1.000000     O
    O   1.0     0.784932     0.027913     0.612107  Biso 1.000000     O
    O   1.0     0.757178     0.052368     0.473819  Biso 1.000000     O
    O   1.0     0.542995     0.466186     0.836744  Biso 1.000000     O
    O   1.0     0.398177     0.462966     0.782075  Biso 1.000000     O
    O   1.0     0.594449     0.009368     0.518588  Biso 1.000000     O
    O   1.0     0.531430     0.636226     0.888694  Biso 1.000000     O
    O   1.0     0.387090     0.629549     0.832897  Biso 1.000000     O
    O   1.0     0.215600     0.524874     0.884544  Biso 1.000000     O
    O   1.0     0.244832     0.552232     0.000000  Biso 1.000000     O
    O   1.0     0.456974     0.965669     0.659859  Biso 1.000000     O
    O   1.0     0.601700     0.965844     0.714592  Biso 1.000000     O
    O   1.0     0.405084     0.509020     0.977636  Biso 1.000000     O
    O   1.0     0.972503     0.135809     0.888950  Biso 1.000000     O
    O   1.0     0.116773     0.132454     0.833232  Biso 1.000000     O
    O   1.0     0.285634     0.027925     0.884327  Biso 1.000000     O
    O   1.0     0.258207     0.052481     0.000000  Biso 1.000000     O
    O   1.0     0.043353     0.466146     0.659706  Biso 1.000000     O
    O   1.0     0.898827     0.462745     0.714587  Biso 1.000000     O
    O   1.0     0.097071     0.009215     0.977808  Biso 1.000000     O
    O   1.0     0.034363     0.636296     0.607722  Biso 1.000000     O
    O   1.0     0.890168     0.629404     0.663434  Biso 1.000000     O
    O   1.0     0.718038     0.524960     0.611797  Biso 1.000000     O
    O   1.0     0.745902     0.552303     0.474160  Biso 1.000000     O
    O   1.0     0.957745     0.965635     0.836450  Biso 1.000000     O
    O   1.0     0.102284     0.966101     0.781621  Biso 1.000000     O
    O   1.0     0.905907     0.509164     0.518481  Biso 1.000000     O
    O   1.0     0.030899     0.864136     0.107552  Biso 1.000000     O
    O   1.0     0.886477     0.867926     0.162997  Biso 1.000000     O
    O   1.0     0.715178     0.972019     0.112249  Biso 1.000000     O
    O   1.0     0.742581     0.947613    -0.026068  Biso 1.000000     O
    O   1.0     0.957245     0.533860     0.336746  Biso 1.000000     O
    O   1.0     0.102495     0.537370     0.283415  Biso 1.000000     O
    O   1.0     0.905536     0.990643     0.018591  Biso 1.000000     O
    O   1.0     0.968874     0.363758     0.388647  Biso 1.000000     O
    O   1.0     0.113135     0.370442     0.332945  Biso 1.000000     O
    O   1.0     0.285258     0.475147     0.384528  Biso 1.000000     O
    O   1.0     0.257477     0.447709     0.522171  Biso 1.000000     O
    O   1.0     0.043054     0.034303     0.159966  Biso 1.000000     O
    O   1.0     0.898410     0.034105     0.214626  Biso 1.000000     O
    O   1.0     0.096239     0.490810     0.477954  Biso 1.000000     O
   Zn   1.0     0.527768     0.960539     0.426466  Biso 1.000000    Zn
   Zn   1.0     0.343073     0.965609     0.359602  Biso 1.000000    Zn
   Zn   1.0     0.468949     0.460189     0.069966  Biso 1.000000    Zn
   Zn   1.0     0.655483     0.468846     0.137026  Biso 1.000000    Zn
   Zn   1.0     0.468917     0.039506     0.570119  Biso 1.000000    Zn
   Zn   1.0     0.655972     0.034234     0.636508  Biso 1.000000    Zn
   Zn   1.0     0.531205     0.539843     0.926398  Biso 1.000000    Zn
   Zn   1.0     0.344481     0.531106     0.859470  Biso 1.000000    Zn
   Zn   1.0     0.971962     0.039374     0.926360  Biso 1.000000    Zn
   Zn   1.0     0.156648     0.034330     0.859664  Biso 1.000000    Zn
   Zn   1.0     0.031938     0.539857     0.569922  Biso 1.000000    Zn
   Zn   1.0     0.847121     0.531229     0.636829  Biso 1.000000    Zn
   Zn   1.0     0.031127     0.960517     0.070098  Biso 1.000000    Zn
   Zn   1.0     0.844174     0.965656     0.136475  Biso 1.000000    Zn
   Zn   1.0     0.969253     0.460131     0.426256  Biso 1.000000    Zn
   Zn   1.0     0.156113     0.468734     0.359951  Biso 1.000000    Zn
