#======================================================================

# CRYSTAL DATA

#----------------------------------------------------------------------

data_VESTA_phase_1


_pd_phase_name                         MOF
_cell_length_a                         16.16700
_cell_length_b                         16.49200
_cell_length_c                         16.49000
_cell_angle_alpha                      98.47200
_cell_angle_beta                       93.83500
_cell_angle_gamma                      93.82700
_symmetry_space_group_name_H-M         "P 1"
_symmetry_Int_Tables_number            1

loop_
_symmetry_equiv_pos_as_xyz
   "x, y, z"

loop_
   _atom_site_label
   _atom_site_occupancy
   _atom_site_fract_x
   _atom_site_fract_y
   _atom_site_fract_z
   _atom_site_adp_type
   _atom_site_B_iso_or_equiv
   _atom_site_type_symbol
    H   1.0     0.546413     0.273672     0.737907  Biso 1.000000     H
    H   1.0     0.720059     0.485455     0.741643  Biso 1.000000     H
    H   1.0     0.773670     0.298434     0.891337  Biso 1.000000     H
    H   1.0     0.566347     0.093668     0.937858  Biso 1.000000     H
    H   1.0     0.668420     0.075373     0.973619  Biso 1.000000     H
    H   1.0     0.440241     0.472999     0.609979  Biso 1.000000     H
    H   1.0     0.376287     0.383929     0.619419  Biso 1.000000     H
    H   1.0     0.917046     0.596027     0.868507  Biso 1.000000     H
    H   1.0     0.956267     0.574983     0.770824  Biso 1.000000     H
    H   1.0     0.639269     0.658225     0.091331  Biso 1.000000     H
    H   1.0     0.494435     0.450677     0.154316  Biso 1.000000     H
    H   1.0     0.380153     0.607185     0.000000  Biso 1.000000     H
    H   1.0     0.410726     0.788762     0.849665  Biso 1.000000     H
    H   1.0     0.510900     0.824797     0.896168  Biso 1.000000     H
    H   1.0     0.749311     0.469725     0.296226  Biso 1.000000     H
    H   1.0     0.682222     0.380434     0.290683  Biso 1.000000     H
    H   1.0     0.215806     0.377761     0.067786  Biso 1.000000     H
    H   1.0     0.280364     0.294849     0.066093  Biso 1.000000     H
    H   1.0     0.722297     0.188911     0.924681  Biso 1.000000     H
    H   1.0     0.504959     0.312155     0.632752  Biso 1.000000     H
    H   1.0     0.861297     0.467241     0.739206  Biso 1.000000     H
    H   1.0     0.404601     0.683231     0.932505  Biso 1.000000     H
    H   1.0     0.582229     0.433188     0.217137  Biso 1.000000     H
    H   1.0     0.382760     0.404726     0.157764  Biso 1.000000     H
    H   1.0     0.954341     0.263071     0.727040  Biso 1.000000     H
    H   1.0     0.780704     0.260593     0.515386  Biso 1.000000     H
    H   1.0     0.726935     0.109903     0.701546  Biso 1.000000     H
    H   1.0     0.933918     0.062880     0.906577  Biso 1.000000     H
    H   1.0     0.831773     0.027546     0.925183  Biso 1.000000     H
    H   1.0     0.061124     0.391154     0.528009  Biso 1.000000     H
    H   1.0     0.124954     0.382939     0.617549  Biso 1.000000     H
    H   1.0     0.583496     0.130599     0.404816  Biso 1.000000     H
    H   1.0     0.544515     0.228501     0.423925  Biso 1.000000     H
    H   1.0     0.860334     0.909314     0.342339  Biso 1.000000     H
    H   1.0     0.005613     0.846287     0.549698  Biso 1.000000     H
    H   1.0     0.119549    -0.004092     0.393012  Biso 1.000000     H
    H   1.0     0.089324     0.151660     0.212586  Biso 1.000000     H
    H   1.0     0.989294     0.105141     0.175913  Biso 1.000000     H
    H   1.0     0.750827     0.704321     0.530937  Biso 1.000000     H
    H   1.0     0.817926     0.710011     0.620245  Biso 1.000000     H
    H   1.0     0.284090     0.934238     0.622256  Biso 1.000000     H
    H   1.0     0.219886     0.936942     0.705559  Biso 1.000000     H
    H   1.0     0.777939     0.076238     0.811430  Biso 1.000000     H
    H   1.0    -0.003186     0.367839     0.688872  Biso 1.000000     H
    H   1.0     0.638811     0.261754     0.532157  Biso 1.000000     H
    H   1.0     0.095352     0.067932     0.317166  Biso 1.000000     H
    H   1.0     0.917811     0.783559     0.567455  Biso 1.000000     H
    H   1.0     0.117330     0.843995     0.596562  Biso 1.000000     H
    H   1.0     0.454298     0.726949     0.262977  Biso 1.000000     H
    H   1.0     0.280706     0.515271     0.260333  Biso 1.000000     H
    H   1.0     0.226972     0.701484     0.109676  Biso 1.000000     H
    H   1.0     0.434014     0.906532     0.062846  Biso 1.000000     H
    H   1.0     0.331862     0.925329     0.027662  Biso 1.000000     H
    H   1.0     0.561093     0.527866     0.391066  Biso 1.000000     H
    H   1.0     0.624968     0.617322     0.382741  Biso 1.000000     H
    H   1.0     0.083560     0.404671     0.130614  Biso 1.000000     H
    H   1.0     0.044628     0.423977     0.228524  Biso 1.000000     H
    H   1.0     0.360494     0.342189     0.909373  Biso 1.000000     H
    H   1.0     0.505690     0.549446     0.846188  Biso 1.000000     H
    H   1.0     0.619661     0.392960    -0.003966  Biso 1.000000     H
    H   1.0     0.589450     0.212623     0.151908  Biso 1.000000     H
    H   1.0     0.489517     0.175813     0.105302  Biso 1.000000     H
    H   1.0     0.250847     0.530700     0.704271  Biso 1.000000     H
    H   1.0     0.317838     0.620080     0.710120  Biso 1.000000     H
    H   1.0     0.784163     0.622040     0.934125  Biso 1.000000     H
    H   1.0     0.719946     0.705343     0.937021  Biso 1.000000     H
    H   1.0     0.278007     0.811465     0.076143  Biso 1.000000     H
    H   1.0     0.496855     0.688659     0.367413  Biso 1.000000     H
    H   1.0     0.138931     0.532194     0.261553  Biso 1.000000     H
    H   1.0     0.595485     0.317031     0.068017  Biso 1.000000     H
    H   1.0     0.417764     0.567358     0.783680  Biso 1.000000     H
    H   1.0     0.617373     0.596387     0.843936  Biso 1.000000     H
    H   1.0     0.046438     0.737907     0.273753  Biso 1.000000     H
    H   1.0     0.220184     0.741686     0.485535  Biso 1.000000     H
    H   1.0     0.273649     0.891335     0.298448  Biso 1.000000     H
    H   1.0     0.066373     0.937715     0.093597  Biso 1.000000     H
    H   1.0     0.168438     0.973483     0.075306  Biso 1.000000     H
    H   1.0     0.940312     0.609946     0.473057  Biso 1.000000     H
    H   1.0     0.876344     0.619446     0.383990  Biso 1.000000     H
    H   1.0     0.417047     0.868443     0.596314  Biso 1.000000     H
    H   1.0     0.457038     0.771234     0.574613  Biso 1.000000     H
    H   1.0     0.139283     0.091412     0.658345  Biso 1.000000     H
    H   1.0     0.994417     0.154362     0.450735  Biso 1.000000     H
    H   1.0     0.880172     0.000000     0.607307  Biso 1.000000     H
    H   1.0     0.910817     0.849888     0.789042  Biso 1.000000     H
    H   1.0     0.011051     0.896346     0.825015  Biso 1.000000     H
    H   1.0     0.249302     0.296218     0.469792  Biso 1.000000     H
    H   1.0     0.182170     0.290747     0.380522  Biso 1.000000     H
    H   1.0     0.715806     0.067860     0.377822  Biso 1.000000     H
    H   1.0     0.780318     0.066114     0.294879  Biso 1.000000     H
    H   1.0     0.222329     0.924596     0.188880  Biso 1.000000     H
    H   1.0     0.000000     0.632749     0.312202  Biso 1.000000     H
    H   1.0     0.361804     0.739558     0.467228  Biso 1.000000     H
    H   1.0     0.904699     0.932468     0.683333  Biso 1.000000     H
    H   1.0     0.082197     0.217180     0.433262  Biso 1.000000     H
    H   1.0     0.882785     0.157780     0.404696  Biso 1.000000     H
    C   1.0     0.657003     0.277231     0.814474  Biso 1.000000     C
    C   1.0     0.605676     0.309036     0.757072  Biso 1.000000     C
    C   1.0     0.627868     0.383358     0.730417  Biso 1.000000     C
    C   1.0     0.704711     0.425607     0.759925  Biso 1.000000     C
    C   1.0     0.757016     0.394262     0.817173  Biso 1.000000     C
    C   1.0     0.732532     0.320708     0.845676  Biso 1.000000     C
    C   1.0     0.621996     0.197450     0.837950  Biso 1.000000     C
    C   1.0     0.630371     0.088959     0.920175  Biso 1.000000     C
    C   1.0     0.628474     0.015024     0.851852  Biso 1.000000     C
    C   1.0     0.567642     0.423477     0.679068  Biso 1.000000     C
    C   1.0     0.434055     0.405677     0.595105  Biso 1.000000     C
    C   1.0     0.424103     0.383882     0.501421  Biso 1.000000     C
    C   1.0     0.835203     0.444183     0.853446  Biso 1.000000     C
    C   1.0     0.942475     0.548007     0.825990  Biso 1.000000     C
    C   1.0     0.025507     0.528569     0.864408  Biso 1.000000     C
    C   1.0     0.510812     0.642602     0.043964  Biso 1.000000     C
    C   1.0     0.580173     0.622315     0.090763  Biso 1.000000     C
    C   1.0     0.574905     0.553764     0.131991  Biso 1.000000     C
    C   1.0     0.498797     0.506734     0.127110  Biso 1.000000     C
    C   1.0     0.428966     0.526951     0.082300  Biso 1.000000     C
    C   1.0     0.435411     0.595087     0.041026  Biso 1.000000     C
    C   1.0     0.524359     0.707964     0.989908  Biso 1.000000     C
    C   1.0     0.470832     0.769004     0.871730  Biso 1.000000     C
    C   1.0     0.508569     0.725525     0.796174  Biso 1.000000     C
    C   1.0     0.651725     0.524978     0.171963  Biso 1.000000     C
    C   1.0     0.708045     0.424639     0.253387  Biso 1.000000     C
    C   1.0     0.762251     0.377750     0.193776  Biso 1.000000     C
    C   1.0     0.349720     0.473172     0.068604  Biso 1.000000     C
    C   1.0     0.266026     0.353102     0.102330  Biso 1.000000     C
    C   1.0     0.236242     0.335187     0.185520  Biso 1.000000     C
    C   1.0     0.843631     0.186640     0.723133  Biso 1.000000     C
    C   1.0     0.895070     0.244156     0.691594  Biso 1.000000     C
    C   1.0     0.872910     0.271296     0.617489  Biso 1.000000     C
    C   1.0     0.796014     0.242037     0.575133  Biso 1.000000     C
    C   1.0     0.743712     0.184563     0.606150  Biso 1.000000     C
    C   1.0     0.768117     0.155697     0.679539  Biso 1.000000     C
    C   1.0     0.878455     0.162775     0.802787  Biso 1.000000     C
    C   1.0     0.869981     0.080782     0.911389  Biso 1.000000     C
    C   1.0     0.872139     0.149366     0.985148  Biso 1.000000     C
    C   1.0     0.933089     0.323011     0.577638  Biso 1.000000     C
    C   1.0     0.066985     0.406543     0.595303  Biso 1.000000     C
    C   1.0     0.076050     0.500344     0.616378  Biso 1.000000     C
    C   1.0     0.665720     0.147974     0.556122  Biso 1.000000     C
    C   1.0     0.558043     0.173966     0.452070  Biso 1.000000     C
    C   1.0     0.474817     0.136031     0.471633  Biso 1.000000     C
    C   1.0    -0.011180     0.956737     0.357751  Biso 1.000000     C
    C   1.0     0.919515     0.909883     0.378122  Biso 1.000000     C
    C   1.0     0.924936     0.868605     0.446672  Biso 1.000000     C
    C   1.0     0.001118     0.873549     0.493665  Biso 1.000000     C
    C   1.0     0.070861     0.918406     0.473343  Biso 1.000000     C
    C   1.0     0.064292     0.959593     0.405158  Biso 1.000000     C
    C   1.0     0.975272     0.011122     0.292623  Biso 1.000000     C
    C   1.0     0.029130     0.129355     0.231949  Biso 1.000000     C
    C   1.0     0.991090     0.204639     0.275632  Biso 1.000000     C
    C   1.0     0.848205     0.828565     0.475559  Biso 1.000000     C
    C   1.0     0.792022     0.747232     0.576005  Biso 1.000000     C
    C   1.0     0.737738     0.806815     0.622887  Biso 1.000000     C
    C   1.0     0.150152     0.932377     0.527038  Biso 1.000000     C
    C   1.0     0.233999     0.900130     0.647526  Biso 1.000000     C
    C   1.0     0.263883     0.817321     0.666251  Biso 1.000000     C
    C   1.0     0.343622     0.723052     0.186507  Biso 1.000000     C
    C   1.0     0.395047     0.691484     0.244027  Biso 1.000000     C
    C   1.0     0.372901     0.617357     0.271110  Biso 1.000000     C
    C   1.0     0.296016     0.575018     0.241797  Biso 1.000000     C
    C   1.0     0.243732     0.606047     0.184295  Biso 1.000000     C
    C   1.0     0.268132     0.679455     0.155484  Biso 1.000000     C
    C   1.0     0.378465     0.802733     0.162729  Biso 1.000000     C
    C   1.0     0.370112     0.911407     0.080825  Biso 1.000000     C
    C   1.0     0.372407     0.985076     0.149527  Biso 1.000000     C
    C   1.0     0.433060     0.577487     0.322852  Biso 1.000000     C
    C   1.0     0.566986     0.595157     0.406366  Biso 1.000000     C
    C   1.0     0.576033     0.616351     0.500170  Biso 1.000000     C
    C   1.0     0.165741     0.556005     0.147696  Biso 1.000000     C
    C   1.0     0.058122     0.452002     0.173907  Biso 1.000000     C
    C   1.0     0.974851     0.471510     0.135958  Biso 1.000000     C
    C   1.0     0.488942     0.357648     0.956835  Biso 1.000000     C
    C   1.0     0.419663     0.377974     0.909937  Biso 1.000000     C
    C   1.0     0.425061     0.446479     0.868605  Biso 1.000000     C
    C   1.0     0.501200     0.493468     0.873528  Biso 1.000000     C
    C   1.0     0.570945     0.473199     0.918438  Biso 1.000000     C
    C   1.0     0.564399     0.405063     0.959691  Biso 1.000000     C
    C   1.0     0.475420     0.292548     0.011222  Biso 1.000000     C
    C   1.0     0.529246     0.231897     0.129499  Biso 1.000000     C
    C   1.0     0.491123     0.275603     0.204704  Biso 1.000000     C
    C   1.0     0.348296     0.475294     0.828539  Biso 1.000000     C
    C   1.0     0.291965     0.575764     0.747268  Biso 1.000000     C
    C   1.0     0.237576     0.622469     0.806870  Biso 1.000000     C
    C   1.0     0.650212     0.526900     0.932361  Biso 1.000000     C
    C   1.0     0.734030     0.647359     0.900109  Biso 1.000000     C
    C   1.0     0.763825     0.666197     0.817305  Biso 1.000000     C
    C   1.0     0.157036     0.814422     0.277238  Biso 1.000000     C
    C   1.0     0.105728     0.757050     0.309084  Biso 1.000000     C
    C   1.0     0.127950     0.730411     0.383420  Biso 1.000000     C
    C   1.0     0.204805     0.759940     0.425669  Biso 1.000000     C
    C   1.0     0.257079     0.817173     0.394287  Biso 1.000000     C
    C   1.0     0.232554     0.845649     0.320717  Biso 1.000000     C
    C   1.0     0.122028     0.837879     0.197438  Biso 1.000000     C
    C   1.0     0.130405     0.920047     0.088902  Biso 1.000000     C
    C   1.0     0.128504     0.851705     0.014981  Biso 1.000000     C
    C   1.0     0.067715     0.679079     0.423544  Biso 1.000000     C
    C   1.0     0.934110     0.595104     0.405724  Biso 1.000000     C
    C   1.0     0.924128     0.501430     0.383896  Biso 1.000000     C
    C   1.0     0.335213     0.853648     0.444205  Biso 1.000000     C
    C   1.0     0.442768     0.826487     0.548007  Biso 1.000000     C
    C   1.0     0.525540     0.865712     0.528938  Biso 1.000000     C
    C   1.0     0.000000     0.044034     0.642692  Biso 1.000000     C
    C   1.0     0.080192     0.090832     0.622410  Biso 1.000000     C
    C   1.0     0.074920     0.132040     0.553841  Biso 1.000000     C
    C   1.0     0.998787     0.127165     0.506802  Biso 1.000000     C
    C   1.0     0.928967     0.082368     0.527018  Biso 1.000000     C
    C   1.0     0.935412     0.041105     0.595170  Biso 1.000000     C
    C   1.0     0.024426     0.990019     0.708112  Biso 1.000000     C
    C   1.0     0.970936     0.871849     0.769244  Biso 1.000000     C
    C   1.0     0.008628     0.796186     0.725896  Biso 1.000000     C
    C   1.0     0.151714     0.172010     0.525050  Biso 1.000000     C
    C   1.0     0.208002     0.253421     0.424699  Biso 1.000000     C
    C   1.0     0.262154     0.193788     0.377759  Biso 1.000000     C
    C   1.0     0.849732     0.068711     0.473227  Biso 1.000000     C
    C   1.0     0.766012     0.102381     0.353132  Biso 1.000000     C
    C   1.0     0.736245     0.185556     0.335185  Biso 1.000000     C
    N   1.0     0.663865     0.165920     0.898621  Biso 1.000000     N
    N   1.0     0.504671     0.374346     0.635732  Biso 1.000000     N
    N   1.0     0.880189     0.479915     0.800193  Biso 1.000000     N
    N   1.0     0.459077     0.718720     0.935863  Biso 1.000000     N
    N   1.0     0.640098     0.462689     0.215928  Biso 1.000000     N
    N   1.0     0.339268     0.411143     0.111727  Biso 1.000000     N
    N   1.0     0.836381     0.102267     0.834384  Biso 1.000000     N
    N   1.0    -0.003366     0.365520     0.626710  Biso 1.000000     N
    N   1.0     0.620256     0.200674     0.520073  Biso 1.000000     N
    N   1.0     0.040772     0.064944     0.281900  Biso 1.000000     N
    N   1.0     0.859942     0.784704     0.537932  Biso 1.000000     N
    N   1.0     0.160557     0.890098     0.589718  Biso 1.000000     N
    N   1.0     0.336438     0.834400     0.102229  Biso 1.000000     N
    N   1.0     0.496645     0.626534     0.365277  Biso 1.000000     N
    N   1.0     0.120325     0.520023     0.200477  Biso 1.000000     N
    N   1.0     0.540896     0.281794     0.065043  Biso 1.000000     N
    N   1.0     0.359929     0.537741     0.784762  Biso 1.000000     N
    N   1.0     0.660596     0.589556     0.890061  Biso 1.000000     N
    N   1.0     0.163904     0.898522     0.165887  Biso 1.000000     N
    N   1.0     0.000000     0.635726     0.374398  Biso 1.000000     N
    N   1.0     0.380533     0.800578     0.479852  Biso 1.000000     N
    N   1.0     0.959198     0.935874     0.718815  Biso 1.000000     N
    N   1.0     0.140070     0.215991     0.462775  Biso 1.000000     N
    N   1.0     0.839279     0.111787     0.411162  Biso 1.000000     N
    O   1.0     0.555908     0.163181     0.802566  Biso 1.000000     O
    O   1.0     0.680236     0.014310     0.795390  Biso 1.000000     O
    O   1.0     0.576378     0.954649     0.853775  Biso 1.000000     O
    O   1.0     0.573465     0.499791     0.680272  Biso 1.000000     O
    O   1.0     0.354583     0.399176     0.468388  Biso 1.000000     O
    O   1.0     0.482715     0.354051     0.461669  Biso 1.000000     O
    O   1.0     0.856198     0.455561     0.929164  Biso 1.000000     O
    O   1.0     0.052450     0.458374     0.854435  Biso 1.000000     O
    O   1.0     0.068982     0.592046     0.905993  Biso 1.000000     O
    O   1.0     0.592687     0.746860    -0.008483  Biso 1.000000     O
    O   1.0     0.507206     0.647334     0.781673  Biso 1.000000     O
    O   1.0     0.541249     0.769325     0.747366  Biso 1.000000     O
    O   1.0     0.723622     0.555377     0.163349  Biso 1.000000     O
    O   1.0     0.821775     0.343391     0.225628  Biso 1.000000     O
    O   1.0     0.749068     0.374073     0.115855  Biso 1.000000     O
    O   1.0     0.295287     0.486074     0.000000  Biso 1.000000     O
    O   1.0     0.283972     0.367761     0.249293  Biso 1.000000     O
    O   1.0     0.170157     0.291737     0.183964  Biso 1.000000     O
    O   1.0     0.944666     0.197829     0.837071  Biso 1.000000     O
    O   1.0     0.819775     0.205278     0.986060  Biso 1.000000     O
    O   1.0     0.924875     0.148246     0.045210  Biso 1.000000     O
    O   1.0     0.926687     0.322901     0.501482  Biso 1.000000     O
    O   1.0     0.145194     0.533915     0.600742  Biso 1.000000     O
    O   1.0     0.017131     0.539657     0.646110  Biso 1.000000     O
    O   1.0     0.645268     0.072184     0.545009  Biso 1.000000     O
    O   1.0     0.447897     0.145845     0.541823  Biso 1.000000     O
    O   1.0     0.431163     0.094804     0.408069  Biso 1.000000     O
    O   1.0     0.906900     0.000000     0.253948  Biso 1.000000     O
    O   1.0     0.992391     0.218904     0.353836  Biso 1.000000     O
    O   1.0     0.958282     0.253513     0.232006  Biso 1.000000     O
    O   1.0     0.776238     0.837014     0.445187  Biso 1.000000     O
    O   1.0     0.677854     0.774878     0.656679  Biso 1.000000     O
    O   1.0     0.751296     0.884759     0.627149  Biso 1.000000     O
    O   1.0     0.204726    -0.014167     0.513553  Biso 1.000000     O
    O   1.0     0.215530     0.753456     0.635388  Biso 1.000000     O
    O   1.0     0.330668     0.819274     0.708677  Biso 1.000000     O
    O   1.0     0.444650     0.836999     0.197860  Biso 1.000000     O
    O   1.0     0.319823     0.986091     0.205249  Biso 1.000000     O
    O   1.0     0.425436     0.044960     0.148679  Biso 1.000000     O
    O   1.0     0.426619     0.501366     0.322856  Biso 1.000000     O
    O   1.0     0.645131     0.600679     0.533818  Biso 1.000000     O
    O   1.0     0.517114     0.646202     0.539388  Biso 1.000000     O
    O   1.0     0.145248     0.544843     0.071899  Biso 1.000000     O
    O   1.0     0.947891     0.541682     0.145800  Biso 1.000000     O
    O   1.0     0.931242     0.407938     0.094690  Biso 1.000000     O
    O   1.0     0.407021     0.253910     0.000000  Biso 1.000000     O
    O   1.0     0.492410     0.353798     0.218926  Biso 1.000000     O
    O   1.0     0.458235     0.232003     0.253551  Biso 1.000000     O
    O   1.0     0.276386     0.444759     0.836907  Biso 1.000000     O
    O   1.0     0.177914     0.656651     0.775030  Biso 1.000000     O
    O   1.0     0.250835     0.626137     0.884783  Biso 1.000000     O
    O   1.0     0.704820     0.513462    -0.014186  Biso 1.000000     O
    O   1.0     0.715460     0.635347     0.753432  Biso 1.000000     O
    O   1.0     0.830553     0.708699     0.819271  Biso 1.000000     O
    O   1.0     0.055934     0.802505     0.163169  Biso 1.000000     O
    O   1.0     0.180287     0.795256     0.014289  Biso 1.000000     O
    O   1.0     0.076376     0.853570     0.954624  Biso 1.000000     O
    O   1.0     0.073509     0.680308     0.499870  Biso 1.000000     O
    O   1.0     0.854609     0.468412     0.399195  Biso 1.000000     O
    O   1.0     0.982723     0.461661     0.354054  Biso 1.000000     O
    O   1.0     0.355849     0.929415     0.455626  Biso 1.000000     O
    O   1.0     0.552240     0.857328     0.458617  Biso 1.000000     O
    O   1.0     0.569164     0.906197     0.592910  Biso 1.000000     O
    O   1.0     0.092736    -0.008190     0.747076  Biso 1.000000     O
    O   1.0     0.007339     0.781650     0.647699  Biso 1.000000     O
    O   1.0     0.041152     0.747355     0.769780  Biso 1.000000     O
    O   1.0     0.223618     0.163401     0.555457  Biso 1.000000     O
    O   1.0     0.321646     0.225615     0.343349  Biso 1.000000     O
    O   1.0     0.248978     0.115887     0.374133  Biso 1.000000     O
    O   1.0     0.795284     0.000000     0.486153  Biso 1.000000     O
    O   1.0     0.783985     0.249324     0.367741  Biso 1.000000     O
    O   1.0     0.670148     0.183998     0.291739  Biso 1.000000     O
   Ca   1.0     0.611958     0.889069     0.724454  Biso 1.000000    Ca
   Ca   1.0     0.604026     0.641324     0.667638  Biso 1.000000    Ca
   Ca   1.0     0.185155     0.509873     0.934730  Biso 1.000000    Ca
   Ca   1.0     0.888121     0.276429     0.111573  Biso 1.000000    Ca
   Ca   1.0     0.895801     0.334086     0.359749  Biso 1.000000    Ca
   Ca   1.0     0.314972     0.066044     0.490365  Biso 1.000000    Ca
   Ca   1.0     0.388142     0.111554     0.276529  Biso 1.000000    Ca
   Ca   1.0     0.395760     0.359663     0.334067  Biso 1.000000    Ca
   Ca   1.0     0.815066     0.490225     0.065922  Biso 1.000000    Ca
   Ca   1.0     0.111728     0.723931     0.889355  Biso 1.000000    Ca
   Ca   1.0     0.104111     0.667727     0.641445  Biso 1.000000    Ca
   Ca   1.0     0.685414     0.935194     0.510754  Biso 1.000000    Ca
