#======================================================================

# CRYSTAL DATA

#----------------------------------------------------------------------

data_VESTA_phase_1


_pd_phase_name                         MOF
_cell_length_a                         19.77900
_cell_length_b                         14.04800
_cell_length_c                         14.05000
_cell_angle_alpha                      82.88300
_cell_angle_beta                       69.37300
_cell_angle_gamma                      69.38900
_symmetry_space_group_name_H-M         "P 1"
_symmetry_Int_Tables_number            1

loop_
_symmetry_equiv_pos_as_xyz
   "x, y, z"

loop_
   _atom_site_label
   _atom_site_occupancy
   _atom_site_fract_x
   _atom_site_fract_y
   _atom_site_fract_z
   _atom_site_adp_type
   _atom_site_B_iso_or_equiv
   _atom_site_type_symbol
    H   1.0     0.452283     0.610920     0.286882  Biso 1.000000     H
    H   1.0     0.952295     0.610922     0.286881  Biso 1.000000     H
    H   1.0     0.144279     0.095422     0.836708  Biso 1.000000     H
    H   1.0     0.644293     0.095422     0.836708  Biso 1.000000     H
    H   1.0     0.401177     0.389105     0.712900  Biso 1.000000     H
    H   1.0     0.901189     0.389105     0.712901  Biso 1.000000     H
    H   1.0     0.111089     0.904668     0.163174  Biso 1.000000     H
    H   1.0     0.611102     0.904668     0.163174  Biso 1.000000     H
    H   1.0     0.404228     0.286841     0.389011  Biso 1.000000     H
    H   1.0     0.904239     0.286842     0.389012  Biso 1.000000     H
    H   1.0     0.436611     0.836718     0.904678  Biso 1.000000     H
    H   1.0     0.936622     0.836718     0.904678  Biso 1.000000     H
    H   1.0     0.242489     0.712748     0.610681  Biso 1.000000     H
    H   1.0     0.742501     0.712748     0.610680  Biso 1.000000     H
    H   1.0     0.308434     0.163274     0.095413  Biso 1.000000     H
    H   1.0     0.808446     0.163274     0.095413  Biso 1.000000     H
    H   1.0     0.151158     0.712889     0.389101  Biso 1.000000     H
    H   1.0     0.651169     0.712890     0.389100  Biso 1.000000     H
    H   1.0     0.361329     0.163174     0.904647  Biso 1.000000     H
    H   1.0     0.861341     0.163174     0.904647  Biso 1.000000     H
    H   1.0     0.202307     0.286843     0.610930  Biso 1.000000     H
    H   1.0     0.702319     0.286842     0.610931  Biso 1.000000     H
    H   1.0     0.394205     0.836728     0.095428  Biso 1.000000     H
    H   1.0     0.894215     0.836728     0.095429  Biso 1.000000     H
    H   1.0    -0.007541     0.610684     0.712780  Biso 1.000000     H
    H   1.0     0.492472     0.610683     0.712779  Biso 1.000000     H
    H   1.0     0.058230     0.095428     0.163247  Biso 1.000000     H
    H   1.0     0.558243     0.095428     0.163246  Biso 1.000000     H
    H   1.0     0.154222     0.389008     0.286845  Biso 1.000000     H
    H   1.0     0.654234     0.389007     0.286843  Biso 1.000000     H
    H   1.0     0.186647     0.904677     0.836707  Biso 1.000000     H
    H   1.0     0.686661     0.904677     0.836706  Biso 1.000000     H
    H   1.0     0.068284     0.499581     0.227452  Biso 1.000000     H
    H   1.0     0.568295     0.499581     0.227452  Biso 1.000000     H
    H   1.0     0.431897     0.499606     0.772436  Biso 1.000000     H
    H   1.0     0.931909     0.499606     0.772436  Biso 1.000000     H
    H   1.0     0.318308     0.227452     0.499582  Biso 1.000000     H
    H   1.0     0.818320     0.227452     0.499582  Biso 1.000000     H
    H   1.0     0.181899     0.772432     0.499624  Biso 1.000000     H
    H   1.0     0.681911     0.772432     0.499624  Biso 1.000000     H
    C   1.0     0.395017     0.626804     0.285280  Biso 1.000000     C
    C   1.0     0.895028     0.626804     0.285280  Biso 1.000000     C
    C   1.0     0.135751     0.052877     0.907736  Biso 1.000000     C
    C   1.0     0.635763     0.052877     0.907736  Biso 1.000000     C
    C   1.0     0.351062     0.373184     0.714530  Biso 1.000000     C
    C   1.0     0.851074     0.373184     0.714531  Biso 1.000000     C
    C   1.0     0.116477     0.947219     0.092172  Biso 1.000000     C
    C   1.0     0.616491     0.947219     0.092172  Biso 1.000000     C
    C   1.0     0.462278     0.285293     0.373179  Biso 1.000000     C
    C   1.0     0.962289     0.285294     0.373179  Biso 1.000000     C
    C   1.0     0.410078     0.907743     0.947211  Biso 1.000000     C
    C   1.0     0.910088     0.907743     0.947211  Biso 1.000000     C
    C   1.0     0.291731     0.714460     0.626688  Biso 1.000000     C
    C   1.0     0.791743     0.714459     0.626688  Biso 1.000000     C
    C   1.0     0.338154     0.092223     0.052876  Biso 1.000000     C
    C   1.0     0.838166     0.092223     0.052876  Biso 1.000000     C
    C   1.0     0.101045     0.714531     0.373178  Biso 1.000000     C
    C   1.0     0.601056     0.714532     0.373177  Biso 1.000000     C
    C   1.0     0.366653     0.092173     0.947200  Biso 1.000000     C
    C   1.0     0.866664     0.092173     0.947200  Biso 1.000000     C
    C   1.0     0.145033     0.285260     0.626802  Biso 1.000000     C
    C   1.0     0.645045     0.285260     0.626802  Biso 1.000000     C
    C   1.0     0.385739     0.907760     0.052886  Biso 1.000000     C
    C   1.0     0.885751     0.907761     0.052886  Biso 1.000000     C
    C   1.0     0.041718     0.626680     0.714457  Biso 1.000000     C
    C   1.0     0.541730     0.626679     0.714456  Biso 1.000000     C
    C   1.0     0.088007     0.052886     0.092203  Biso 1.000000     C
    C   1.0     0.588019     0.052885     0.092202  Biso 1.000000     C
    C   1.0     0.212268     0.373186     0.285296  Biso 1.000000     C
    C   1.0     0.712280     0.373186     0.285295  Biso 1.000000     C
    C   1.0     0.160059     0.947212     0.907732  Biso 1.000000     C
    C   1.0     0.660073     0.947211     0.907731  Biso 1.000000     C
    C   1.0     0.088706     0.499847     0.145327  Biso 1.000000     C
    C   1.0     0.588717     0.499847     0.145327  Biso 1.000000     C
    C   1.0     0.411349     0.499794     0.854561  Biso 1.000000     C
    C   1.0     0.911361     0.499794     0.854561  Biso 1.000000     C
    C   1.0     0.338721     0.145324     0.499856  Biso 1.000000     C
    C   1.0     0.838733     0.145324     0.499856  Biso 1.000000     C
    C   1.0     0.161355     0.854560     0.499789  Biso 1.000000     C
    C   1.0     0.661367     0.854560     0.499789  Biso 1.000000     C
    C   1.0     0.070107     0.220246    -0.000016  Biso 1.000000     C
    C   1.0     0.570128     0.220233     0.999982  Biso 1.000000     C
    C   1.0     0.098580     0.106313    -0.000017  Biso 1.000000     C
    C   1.0     0.598594     0.106313    -0.000017  Biso 1.000000     C
    C   1.0     0.180113     0.779848    -0.000069  Biso 1.000000     C
    C   1.0     0.680126     0.779848    -0.000069  Biso 1.000000     C
    C   1.0     0.151585     0.893789    -0.000053  Biso 1.000000     C
    C   1.0     0.651597     0.893789    -0.000053  Biso 1.000000     C
    C   1.0     0.430223    -0.000072     0.779837  Biso 1.000000     C
    C   1.0     0.930234    -0.000072     0.779837  Biso 1.000000     C
    C   1.0     0.401688    -0.000055     0.893773  Biso 1.000000     C
    C   1.0     0.901700    -0.000055     0.893773  Biso 1.000000     C
    C   1.0     0.320145    -0.000003     0.220234  Biso 1.000000     C
    C   1.0     0.820156    -0.000002     0.220234  Biso 1.000000     C
    C   1.0     0.348647     0.000001     0.106305  Biso 1.000000     C
    C   1.0     0.848657     0.000001     0.106305  Biso 1.000000     C
    N   1.0     0.374880     0.574679     0.232664  Biso 1.000000     N
    N   1.0     0.874892     0.574679     0.232664  Biso 1.000000     N
    N   1.0     0.299155     0.625097     0.248667  Biso 1.000000     N
    N   1.0     0.799166     0.625097     0.248667  Biso 1.000000     N
    N   1.0     0.275192     0.704028     0.308809  Biso 1.000000     N
    N   1.0     0.775203     0.704028     0.308809  Biso 1.000000     N
    N   1.0     0.335077     0.706313     0.333270  Biso 1.000000     N
    N   1.0     0.835088     0.706313     0.333270  Biso 1.000000     N
    N   1.0     0.058376     0.469993     0.087996  Biso 1.000000     N
    N   1.0     0.558387     0.469993     0.087996  Biso 1.000000     N
    N   1.0     0.100295     0.482309     0.991213  Biso 1.000000     N
    N   1.0     0.600306     0.482309     0.991213  Biso 1.000000     N
    N   1.0     0.278523     0.425289     0.767136  Biso 1.000000     N
    N   1.0     0.778535     0.425289     0.767136  Biso 1.000000     N
    N   1.0     0.236054     0.374799     0.751135  Biso 1.000000     N
    N   1.0     0.736066     0.374799     0.751135  Biso 1.000000     N
    N   1.0     0.281680     0.295870     0.691004  Biso 1.000000     N
    N   1.0     0.781692     0.295870     0.691003  Biso 1.000000     N
    N   1.0     0.354932     0.293633     0.666561  Biso 1.000000     N
    N   1.0     0.854944     0.293633     0.666561  Biso 1.000000     N
    N   1.0     0.337409     0.530020     0.911929  Biso 1.000000     N
    N   1.0     0.837420     0.530019     0.911929  Biso 1.000000     N
    N   1.0     0.337103     0.518104     0.008695  Biso 1.000000     N
    N   1.0     0.837115     0.518104     0.008694  Biso 1.000000     N
    N   1.0     0.008726     0.232675     0.425275  Biso 1.000000     N
    N   1.0     0.508737     0.232675     0.425275  Biso 1.000000     N
    N   1.0     0.076421     0.248791     0.374907  Biso 1.000000     N
    N   1.0     0.576433     0.248791     0.374907  Biso 1.000000     N
    N   1.0     0.070268     0.308996     0.296044  Biso 1.000000     N
    N   1.0     0.570280     0.308996     0.296044  Biso 1.000000     N
    N   1.0     0.498174     0.333391     0.293745  Biso 1.000000     N
    N   1.0     0.998185     0.333392     0.293745  Biso 1.000000     N
    N   1.0     0.397547     0.087971     0.530046  Biso 1.000000     N
    N   1.0     0.897559     0.087971     0.530046  Biso 1.000000     N
    N   1.0     0.403758     0.991204     0.518233  Biso 1.000000     N
    N   1.0     0.903769     0.991204     0.518233  Biso 1.000000     N
    N   1.0     0.337956     0.767071     0.574603  Biso 1.000000     N
    N   1.0     0.837968     0.767071     0.574603  Biso 1.000000     N
    N   1.0     0.388335     0.751214     0.625190  Biso 1.000000     N
    N   1.0     0.888346     0.751214     0.625190  Biso 1.000000     N
    N   1.0     0.372728     0.691167     0.704162  Biso 1.000000     N
    N   1.0     0.872739     0.691167     0.704162  Biso 1.000000     N
    N   1.0     0.311767     0.666624     0.706318  Biso 1.000000     N
    N   1.0     0.811779     0.666623     0.706318  Biso 1.000000     N
    N   1.0     0.206622     0.911902     0.469786  Biso 1.000000     N
    N   1.0     0.706633     0.911902     0.469787  Biso 1.000000     N
    N   1.0     0.158540     0.008673     0.482047  Biso 1.000000     N
    N   1.0     0.658551     0.008673     0.482047  Biso 1.000000     N
    N   1.0     0.028509     0.767151     0.425276  Biso 1.000000     N
    N   1.0     0.528520     0.767151     0.425276  Biso 1.000000     N
    N   1.0     0.486055     0.751166     0.374782  Biso 1.000000     N
    N   1.0     0.986067     0.751167     0.374782  Biso 1.000000     N
    N   1.0     0.031667     0.691026     0.295861  Biso 1.000000     N
    N   1.0     0.531679     0.691025     0.295861  Biso 1.000000     N
    N   1.0     0.104915     0.666566     0.293630  Biso 1.000000     N
    N   1.0     0.604926     0.666567     0.293629  Biso 1.000000     N
    N   1.0     0.087417     0.911919     0.529985  Biso 1.000000     N
    N   1.0     0.587428     0.911919     0.529985  Biso 1.000000     N
    N   1.0     0.087117     0.008683     0.518043  Biso 1.000000     N
    N   1.0     0.587129     0.008683     0.518043  Biso 1.000000     N
    N   1.0     0.124892     0.232655     0.574671  Biso 1.000000     N
    N   1.0     0.624903     0.232654     0.574672  Biso 1.000000     N
    N   1.0     0.049155     0.248685     0.625070  Biso 1.000000     N
    N   1.0     0.549167     0.248686     0.625070  Biso 1.000000     N
    N   1.0     0.025190     0.308833     0.703996  Biso 1.000000     N
    N   1.0     0.525202     0.308833     0.703996  Biso 1.000000     N
    N   1.0     0.085085     0.333271     0.706297  Biso 1.000000     N
    N   1.0     0.585097     0.333271     0.706297  Biso 1.000000     N
    N   1.0     0.308399     0.087981     0.469994  Biso 1.000000     N
    N   1.0     0.808411     0.087981     0.469994  Biso 1.000000     N
    N   1.0     0.350300     0.991215     0.482333  Biso 1.000000     N
    N   1.0     0.850312     0.991215     0.482333  Biso 1.000000     N
    N   1.0     0.087926     0.574604     0.767067  Biso 1.000000     N
    N   1.0     0.587937     0.574603     0.767067  Biso 1.000000     N
    N   1.0     0.138338     0.625165     0.751165  Biso 1.000000     N
    N   1.0     0.638350     0.625165     0.751165  Biso 1.000000     N
    N   1.0     0.122766     0.704113     0.691087  Biso 1.000000     N
    N   1.0     0.622777     0.704113     0.691087  Biso 1.000000     N
    N   1.0     0.061793     0.706286     0.666572  Biso 1.000000     N
    N   1.0     0.561805     0.706286     0.666572  Biso 1.000000     N
    N   1.0     0.456611     0.469792     0.911885  Biso 1.000000     N
    N   1.0     0.956622     0.469792     0.911885  Biso 1.000000     N
    N   1.0     0.408522     0.482088     0.008672  Biso 1.000000     N
    N   1.0     0.908534     0.482088     0.008672  Biso 1.000000     N
    N   1.0     0.258744     0.425283     0.232663  Biso 1.000000     N
    N   1.0     0.758755     0.425283     0.232663  Biso 1.000000     N
    N   1.0     0.326428     0.374920     0.248781  Biso 1.000000     N
    N   1.0     0.826440     0.374921     0.248781  Biso 1.000000     N
    N   1.0     0.320257     0.296065     0.309002  Biso 1.000000     N
    N   1.0     0.820268     0.296066     0.309003  Biso 1.000000     N
    N   1.0     0.248147     0.293765     0.333401  Biso 1.000000     N
    N   1.0     0.748158     0.293765     0.333401  Biso 1.000000     N
    N   1.0     0.147552     0.530022     0.087961  Biso 1.000000     N
    N   1.0     0.647564     0.530022     0.087961  Biso 1.000000     N
    N   1.0     0.153770     0.518192     0.991190  Biso 1.000000     N
    N   1.0     0.653782     0.518192     0.991190  Biso 1.000000     N
    O   1.0     0.010994     0.262834     0.074693  Biso 1.000000     O
    O   1.0     0.511006     0.262834     0.074693  Biso 1.000000     O
    O   1.0     0.179821     0.737219     0.925163  Biso 1.000000     O
    O   1.0     0.679834     0.737219     0.925162  Biso 1.000000     O
    O   1.0     0.451879     0.074688     0.737222  Biso 1.000000     O
    O   1.0     0.951891     0.074688     0.737222  Biso 1.000000     O
    O   1.0     0.357935     0.925315     0.262820  Biso 1.000000     O
    O   1.0     0.857946     0.925316     0.262820  Biso 1.000000     O
    O   1.0     0.429945     0.925147     0.737228  Biso 1.000000     O
    O   1.0     0.929956     0.925147     0.737228  Biso 1.000000     O
    O   1.0     0.261036     0.074707     0.262816  Biso 1.000000     O
    O   1.0     0.761047     0.074707     0.262816  Biso 1.000000     O
    O   1.0     0.107929     0.262822     0.925293  Biso 1.000000     O
    O   1.0     0.607941     0.262822     0.925292  Biso 1.000000     O
    O   1.0     0.201778     0.737245     0.074665  Biso 1.000000     O
    O   1.0     0.701791     0.737245     0.074665  Biso 1.000000     O
   Cd   1.0     0.449189     0.411269     0.155158  Biso 1.000000    Cd
   Cd   1.0     0.949200     0.411269     0.155158  Biso 1.000000    Cd
   Cd   1.0     0.232394     0.588758     0.844774  Biso 1.000000    Cd
   Cd   1.0     0.732406     0.588758     0.844774  Biso 1.000000    Cd
   Cd   1.0     0.473212     0.155086     0.588747  Biso 1.000000    Cd
   Cd   1.0     0.973224     0.155086     0.588747  Biso 1.000000    Cd
   Cd   1.0     0.345199     0.844778     0.411232  Biso 1.000000    Cd
   Cd   1.0     0.845211     0.844778     0.411232  Biso 1.000000    Cd
   Cd   1.0     0.482403     0.844780     0.588760  Biso 1.000000    Cd
   Cd   1.0     0.982414     0.844780     0.588760  Biso 1.000000    Cd
   Cd   1.0     0.199201     0.155158     0.411261  Biso 1.000000    Cd
   Cd   1.0     0.699213     0.155158     0.411261  Biso 1.000000    Cd
   Cd   1.0     0.095177     0.411241     0.844763  Biso 1.000000    Cd
   Cd   1.0     0.595188     0.411241     0.844762  Biso 1.000000    Cd
   Cd   1.0     0.223199     0.588772     0.155074  Biso 1.000000    Cd
   Cd   1.0     0.723210     0.588772     0.155074  Biso 1.000000    Cd
