#======================================================================

# CRYSTAL DATA

#----------------------------------------------------------------------

data_VESTA_phase_1


_pd_phase_name                         MOF
_cell_length_a                         17.26700
_cell_length_b                         17.30200
_cell_length_c                         17.29400
_cell_angle_alpha                      97.82600
_cell_angle_beta                       115.50100
_cell_angle_gamma                      115.50600
_symmetry_space_group_name_H-M         "P 1"
_symmetry_Int_Tables_number            1

loop_
_symmetry_equiv_pos_as_xyz
   "x, y, z"

loop_
   _atom_site_label
   _atom_site_occupancy
   _atom_site_fract_x
   _atom_site_fract_y
   _atom_site_fract_z
   _atom_site_adp_type
   _atom_site_B_iso_or_equiv
   _atom_site_type_symbol
    H   1.0     0.334954     0.886691     0.971835  Biso 1.000000     H
    H   1.0     0.219956     0.809322     0.685527  Biso 1.000000     H
    H   1.0     0.096142     0.881549     0.639276  Biso 1.000000     H
    H   1.0     0.111488     0.987961     0.808728  Biso 1.000000     H
    H   1.0     0.530916     0.999080     0.887190  Biso 1.000000     H
    H   1.0     0.468420     0.754386     0.715023  Biso 1.000000     H
    H   1.0     0.617529     0.838091     0.672439  Biso 1.000000     H
    H   1.0     0.732419     0.052776     0.751051  Biso 1.000000     H
    H   1.0     0.213010     0.940819     0.908182  Biso 1.000000     H
    H   1.0     0.663944     0.051460     0.842826  Biso 1.000000     H
    H   1.0     0.831861     0.860885     0.448554  Biso 1.000000     H
    H   1.0     0.723698     0.037691     0.409750  Biso 1.000000     H
    H   1.0     0.600708     0.960597     0.214443  Biso 1.000000     H
    H   1.0     0.607976     0.799668     0.124190  Biso 1.000000     H
    H   1.0     0.030385     0.145013     0.529773  Biso 1.000000     H
    H   1.0     0.967144     0.253213     0.712699  Biso 1.000000     H
    H   1.0     0.115972     0.444358     0.778166  Biso 1.000000     H
    H   1.0     0.232509     0.481616     0.679268  Biso 1.000000     H
    H   1.0     0.711709     0.803711     0.272969  Biso 1.000000     H
    H   1.0     0.163153     0.321794     0.610670  Biso 1.000000     H
    H   1.0     0.168073     0.139047     0.551361  Biso 1.000000     H
    H   1.0     0.276229     0.962240     0.590140  Biso 1.000000     H
    H   1.0     0.399452     0.039505     0.785484  Biso 1.000000     H
    H   1.0     0.391967     0.200279     0.875712  Biso 1.000000     H
    H   1.0     0.969541     0.854962     0.470091  Biso 1.000000     H
    H   1.0     0.032898     0.746672     0.287324  Biso 1.000000     H
    H   1.0     0.883814     0.555600     0.221627  Biso 1.000000     H
    H   1.0     0.767473     0.518321     0.320699  Biso 1.000000     H
    H   1.0     0.288254     0.196236     0.726931  Biso 1.000000     H
    H   1.0     0.836770     0.678186     0.389239  Biso 1.000000     H
    H   1.0     0.665048     0.113276     0.028122  Biso 1.000000     H
    H   1.0     0.780026     0.190728     0.314434  Biso 1.000000     H
    H   1.0     0.903928     0.118547     0.360743  Biso 1.000000     H
    H   1.0     0.888406     0.011966     0.191255  Biso 1.000000     H
    H   1.0     0.469030     0.000940     0.112737  Biso 1.000000     H
    H   1.0     0.531595     0.245633     0.284980  Biso 1.000000     H
    H   1.0     0.382425     0.161915     0.327503  Biso 1.000000     H
    H   1.0     0.267532     0.947232     0.248902  Biso 1.000000     H
    H   1.0     0.786984     0.059164     0.091820  Biso 1.000000     H
    H   1.0     0.336042     0.948566     0.157140  Biso 1.000000     H
    H   1.0     0.087490     0.971098     0.139235  Biso 1.000000     H
    H   1.0     0.873180     0.687041     0.962656  Biso 1.000000     H
    H   1.0     0.754392     0.640663     0.039837  Biso 1.000000     H
    H   1.0     0.823693     0.808042     0.200369  Biso 1.000000     H
    H   1.0     0.886600     0.887100     0.855043  Biso 1.000000     H
    H   1.0     0.960141     0.714453     0.746920  Biso 1.000000     H
    H   1.0     0.834225     0.671853     0.555462  Biso 1.000000     H
    H   1.0     0.697417     0.750399     0.518378  Biso 1.000000     H
    H   1.0     0.968601     0.907645     0.196427  Biso 1.000000     H
    H   1.0     0.790237     0.842486     0.678075  Biso 1.000000     H
    H   1.0     0.585205     0.448541     0.113076  Biso 1.000000     H
    H   1.0     0.375426     0.409913     0.190482  Biso 1.000000     H
    H   1.0     0.257911     0.214655     0.118751  Biso 1.000000     H
    H   1.0     0.321233     0.124251     0.011817  Biso 1.000000     H
    H   1.0     0.385722     0.529905     0.000542  Biso 1.000000     H
    H   1.0     0.460106     0.713765     0.245358  Biso 1.000000     H
    H   1.0     0.334360     0.779482     0.161629  Biso 1.000000     H
    H   1.0     0.198001     0.679814     0.946911  Biso 1.000000     H
    H   1.0     0.468294     0.273060     0.059249  Biso 1.000000     H
    H   1.0     0.289646     0.611054     0.948067  Biso 1.000000     H
    H   1.0     0.414846     0.551514     0.886937  Biso 1.000000     H
    H   1.0     0.624498     0.590071     0.809390  Biso 1.000000     H
    H   1.0     0.742134     0.785345     0.881227  Biso 1.000000     H
    H   1.0     0.678737     0.875748     0.988077  Biso 1.000000     H
    H   1.0     0.614314     0.470187     0.999470  Biso 1.000000     H
    H   1.0     0.539694     0.286107     0.754650  Biso 1.000000     H
    H   1.0     0.665560     0.220534     0.838353  Biso 1.000000     H
    H   1.0     0.801968     0.320161     0.053075  Biso 1.000000     H
    H   1.0     0.531807     0.727004     0.940774  Biso 1.000000     H
    H   1.0     0.710331     0.388985     0.051958  Biso 1.000000     H
    H   1.0     0.912436     0.028937     0.860725  Biso 1.000000     H
    H   1.0     0.126889     0.312971     0.037339  Biso 1.000000     H
    H   1.0     0.245456     0.359359     0.959980  Biso 1.000000     H
    H   1.0     0.176241     0.191970     0.799521  Biso 1.000000     H
    H   1.0     0.113352     0.112881     0.144907  Biso 1.000000     H
    H   1.0     0.039843     0.285548     0.253037  Biso 1.000000     H
    H   1.0     0.165744     0.328151     0.444479  Biso 1.000000     H
    H   1.0     0.302574     0.249621     0.481549  Biso 1.000000     H
    H   1.0     0.031326     0.092347     0.803501  Biso 1.000000     H
    H   1.0     0.209751     0.157524     0.321888  Biso 1.000000     H
    C   1.0     0.292451     0.878383     0.900363  Biso 1.000000     C
    C   1.0     0.232012     0.839357     0.752090  Biso 1.000000     C
    C   1.0     0.190622     0.886030     0.772727  Biso 1.000000     C
    C   1.0     0.122772     0.908405     0.712740  Biso 1.000000     C
    C   1.0     0.088859     0.958673     0.736972  Biso 1.000000     C
    C   1.0     0.016615     0.973532     0.665399  Biso 1.000000     C
    C   1.0     0.536145     0.952951     0.843022  Biso 1.000000     C
    C   1.0     0.505261     0.828178     0.752701  Biso 1.000000     C
    C   1.0     0.584588     0.903996     0.757550  Biso 1.000000     C
    C   1.0     0.638270     0.906096     0.712603  Biso 1.000000     C
    C   1.0     0.708814     0.982704     0.713541  Biso 1.000000     C
    C   1.0     0.757141     0.976063     0.662317  Biso 1.000000     C
    C   1.0     0.790967     0.891129     0.414207  Biso 1.000000     C
    C   1.0     0.734073     0.981781     0.392163  Biso 1.000000     C
    C   1.0     0.691697     0.918831     0.304523  Biso 1.000000     C
    C   1.0     0.624576     0.911478     0.214409  Biso 1.000000     C
    C   1.0     0.588230     0.851184     0.130563  Biso 1.000000     C
    C   1.0     0.516929     0.851159     0.043451  Biso 1.000000     C
    C   1.0     0.035223     0.193979     0.581158  Biso 1.000000     C
    C   1.0     0.004057     0.252676     0.675504  Biso 1.000000     C
    C   1.0     0.083444     0.327112     0.679023  Biso 1.000000     C
    C   1.0     0.137157     0.425310     0.730997  Biso 1.000000     C
    C   1.0     0.208307     0.495004     0.725529  Biso 1.000000     C
    C   1.0     0.256629     0.594054     0.781132  Biso 1.000000     C
    C   1.0     0.208967     0.108803     0.585707  Biso 1.000000     C
    C   1.0     0.265880     0.018167     0.607741  Biso 1.000000     C
    C   1.0     0.308303     0.081145     0.695384  Biso 1.000000     C
    C   1.0     0.375489     0.088551     0.785503  Biso 1.000000     C
    C   1.0     0.411755     0.148793     0.869344  Biso 1.000000     C
    C   1.0     0.483023     0.148817     0.956472  Biso 1.000000     C
    C   1.0     0.964729     0.805979     0.418746  Biso 1.000000     C
    C   1.0     0.995930     0.747251     0.324454  Biso 1.000000     C
    C   1.0     0.916506     0.672837     0.320911  Biso 1.000000     C
    C   1.0     0.862724     0.574642     0.268887  Biso 1.000000     C
    C   1.0     0.791589     0.504939     0.274359  Biso 1.000000     C
    C   1.0     0.743317     0.405908     0.218745  Biso 1.000000     C
    C   1.0     0.707534     0.121589     0.099599  Biso 1.000000     C
    C   1.0     0.767980     0.160675     0.247880  Biso 1.000000     C
    C   1.0     0.809378     0.113995     0.227271  Biso 1.000000     C
    C   1.0     0.877252     0.091644     0.287271  Biso 1.000000     C
    C   1.0     0.911055     0.041272     0.263014  Biso 1.000000     C
    C   1.0     0.983333     0.026436     0.334578  Biso 1.000000     C
    C   1.0     0.463814     0.047064     0.156923  Biso 1.000000     C
    C   1.0     0.494733     0.171844     0.247267  Biso 1.000000     C
    C   1.0     0.415407     0.096028     0.242421  Biso 1.000000     C
    C   1.0     0.361709     0.093917     0.287352  Biso 1.000000     C
    C   1.0     0.291156     0.017313     0.286408  Biso 1.000000     C
    C   1.0     0.242855     0.023984     0.337652  Biso 1.000000     C
    C   1.0     0.023086     0.900110     0.109021  Biso 1.000000     C
    C   1.0     0.911068     0.753007     0.018497  Biso 1.000000     C
    C   1.0     0.885908     0.773211     0.081395  Biso 1.000000     C
    C   1.0     0.803108     0.713403     0.088840  Biso 1.000000     C
    C   1.0     0.779015     0.737035     0.148994  Biso 1.000000     C
    C   1.0     0.691878     0.665699     0.148984  Biso 1.000000     C
    C   1.0     0.888816     0.842755     0.806054  Biso 1.000000     C
    C   1.0     0.923796     0.752199     0.747403  Biso 1.000000     C
    C   1.0     0.852793     0.756998     0.672853  Biso 1.000000     C
    C   1.0     0.806061     0.712016     0.574570  Biso 1.000000     C
    C   1.0     0.730391     0.712958     0.504882  Biso 1.000000     C
    C   1.0     0.686424     0.661777     0.405747  Biso 1.000000     C
    C   1.0     0.521980     0.414207     0.121452  Biso 1.000000     C
    C   1.0     0.412312     0.392284     0.160500  Biso 1.000000     C
    C   1.0     0.386804     0.304645     0.113957  Biso 1.000000     C
    C   1.0     0.304596     0.214598     0.091703  Biso 1.000000     C
    C   1.0     0.278720     0.130759     0.041327  Biso 1.000000     C
    C   1.0     0.192449     0.043802     0.026665  Biso 1.000000     C
    C   1.0     0.388068     0.581567     0.046697  Biso 1.000000     C
    C   1.0     0.423590     0.676419     0.171533  Biso 1.000000     C
    C   1.0     0.352632     0.679903     0.095653  Biso 1.000000     C
    C   1.0     0.306227     0.732044     0.093595  Biso 1.000000     C
    C   1.0     0.230846     0.726358     0.017032  Biso 1.000000     C
    C   1.0     0.186872     0.781844     0.023835  Biso 1.000000     C
    C   1.0     0.478057     0.585834     0.878539  Biso 1.000000     C
    C   1.0     0.587661     0.607719     0.839423  Biso 1.000000     C
    C   1.0     0.613233     0.695369     0.886018  Biso 1.000000     C
    C   1.0     0.695451     0.785410     0.908275  Biso 1.000000     C
    C   1.0     0.721262     0.869247     0.958579  Biso 1.000000     C
    C   1.0     0.807543     0.956204     0.973256  Biso 1.000000     C
    C   1.0     0.611915     0.418481     0.953310  Biso 1.000000     C
    C   1.0     0.576283     0.323523     0.828474  Biso 1.000000     C
    C   1.0     0.647283     0.320084     0.904361  Biso 1.000000     C
    C   1.0     0.693701     0.267956     0.906398  Biso 1.000000     C
    C   1.0     0.769095     0.273627     0.982939  Biso 1.000000     C
    C   1.0     0.813082     0.218164     0.976099  Biso 1.000000     C
    C   1.0     0.976872     0.099909     0.890940  Biso 1.000000     C
    C   1.0     0.088945     0.247005     0.981471  Biso 1.000000     C
    C   1.0     0.114038     0.226786     0.918522  Biso 1.000000     C
    C   1.0     0.196792     0.286603     0.911032  Biso 1.000000     C
    C   1.0     0.220888     0.262981     0.850878  Biso 1.000000     C
    C   1.0     0.308071     0.334322     0.850944  Biso 1.000000     C
    C   1.0     0.111144     0.157231     0.193899  Biso 1.000000     C
    C   1.0     0.076186     0.247800     0.252552  Biso 1.000000     C
    C   1.0     0.147194     0.243011     0.327106  Biso 1.000000     C
    C   1.0     0.193928     0.288000     0.425389  Biso 1.000000     C
    C   1.0     0.269605     0.287057     0.495067  Biso 1.000000     C
    C   1.0     0.313578     0.338228     0.594206  Biso 1.000000     C
    N   1.0     0.295400     0.835443     0.831998  Biso 1.000000     N
    N   1.0     0.231121     0.909899     0.867716  Biso 1.000000     N
    N   1.0     0.475735     0.859352     0.805702  Biso 1.000000     N
    N   1.0     0.601930     0.982029     0.815263  Biso 1.000000     N
    N   1.0     0.795810     0.964056     0.459589  Biso 1.000000     N
    N   1.0     0.729925     0.862522     0.321537  Biso 1.000000     N
    N   1.0     0.974646     0.170635     0.614495  Biso 1.000000     N
    N   1.0     0.100918     0.287223     0.618004  Biso 1.000000     N
    N   1.0     0.204104     0.035866     0.540324  Biso 1.000000     N
    N   1.0     0.270050     0.137439     0.678377  Biso 1.000000     N
    N   1.0     0.025347     0.829307     0.385450  Biso 1.000000     N
    N   1.0     0.899007     0.712741     0.381896  Biso 1.000000     N
    N   1.0     0.704573     0.164544     0.167945  Biso 1.000000     N
    N   1.0     0.768878     0.090093     0.132278  Biso 1.000000     N
    N   1.0     0.524239     0.140661     0.194245  Biso 1.000000     N
    N   1.0     0.398043     0.017988     0.184696  Biso 1.000000     N
    N   1.0     0.996088     0.832438     0.036178  Biso 1.000000     N
    N   1.0     0.958794     0.867466     0.137606  Biso 1.000000     N
    N   1.0     0.945282     0.805363     0.829489  Biso 1.000000     N
    N   1.0     0.832135     0.814852     0.712726  Biso 1.000000     N
    N   1.0     0.496050     0.459638     0.164306  Biso 1.000000     N
    N   1.0     0.458195     0.321587     0.090078  Biso 1.000000     N
    N   1.0     0.444744     0.615132     0.140367  Biso 1.000000     N
    N   1.0     0.331607     0.618590     0.017584  Biso 1.000000     N
    N   1.0     0.503922     0.540375     0.835625  Biso 1.000000     N
    N   1.0     0.541882     0.678454     0.909943  Biso 1.000000     N
    N   1.0     0.555171     0.384849     0.859634  Biso 1.000000     N
    N   1.0     0.668362     0.381450     0.982423  Biso 1.000000     N
    N   1.0     0.003924     0.167588     0.963811  Biso 1.000000     N
    N   1.0     0.041136     0.132531     0.862323  Biso 1.000000     N
    N   1.0     0.054671     0.194616     0.170462  Biso 1.000000     N
    N   1.0     0.167846     0.185153     0.287230  Biso 1.000000     N
    O   1.0     0.988574     0.023574     0.696709  Biso 1.000000     O
    O   1.0     0.984126     0.940509     0.581203  Biso 1.000000     O
    O   1.0     0.811954     0.053188     0.657943  Biso 1.000000     O
    O   1.0     0.745682     0.900153     0.625736  Biso 1.000000     O
    O   1.0     0.486721     0.789597     0.965882  Biso 1.000000     O
    O   1.0     0.487096     0.905221     0.043541  Biso 1.000000     O
    O   1.0     0.312056     0.653639     0.759441  Biso 1.000000     O
    O   1.0     0.244393     0.618304     0.845357  Biso 1.000000     O
    O   1.0     0.513357     0.210499     0.034026  Biso 1.000000     O
    O   1.0     0.512763     0.094678     0.956420  Biso 1.000000     O
    O   1.0     0.687870     0.346303     0.240398  Biso 1.000000     O
    O   1.0     0.755528     0.381703     0.154484  Biso 1.000000     O
    O   1.0     0.011472     0.976499     0.303262  Biso 1.000000     O
    O   1.0     0.015717     0.059330     0.418758  Biso 1.000000     O
    O   1.0     0.188036     0.946862     0.342023  Biso 1.000000     O
    O   1.0     0.254349     0.099904     0.374260  Biso 1.000000     O
    O   1.0     0.674776     0.696670     0.209946  Biso 1.000000     O
    O   1.0     0.638707     0.582037     0.095296  Biso 1.000000     O
    O   1.0     0.604833     0.657303     0.346355  Biso 1.000000     O
    O   1.0     0.726428     0.625427     0.381248  Biso 1.000000     O
    O   1.0     0.174252     0.966117     0.976827  Biso 1.000000     O
    O   1.0     0.140933     0.044104     0.059601  Biso 1.000000     O
    O   1.0     0.105550     0.759958     0.946812  Biso 1.000000     O
    O   1.0     0.226491     0.846287     0.099772  Biso 1.000000     O
    O   1.0     0.825714     0.033881     0.023077  Biso 1.000000     O
    O   1.0     0.859062     0.955910     0.940321  Biso 1.000000     O
    O   1.0     0.894448     0.240074     0.053096  Biso 1.000000     O
    O   1.0     0.773441     0.153718     0.900154  Biso 1.000000     O
    O   1.0     0.325129     0.303366     0.789944  Biso 1.000000     O
    O   1.0     0.361240     0.417979     0.904659  Biso 1.000000     O
    O   1.0     0.395159     0.342677     0.653585  Biso 1.000000     O
    O   1.0     0.273591     0.374576     0.618737  Biso 1.000000     O
   Zn   1.0     0.382944     0.783724     0.846730  Biso 1.000000    Zn
   Zn   1.0     0.883117     0.037217     0.598318  Biso 1.000000    Zn
   Zn   1.0     0.116792     0.962713     0.401596  Biso 1.000000    Zn
   Zn   1.0     0.616965     0.216199     0.153137  Biso 1.000000    Zn
   Zn   1.0     0.062188     0.847192     0.963042  Biso 1.000000    Zn
   Zn   1.0     0.561767     0.598396     0.215970  Biso 1.000000    Zn
   Zn   1.0     0.438186     0.401616     0.783956  Biso 1.000000    Zn
   Zn   1.0     0.937791     0.152823     0.036906  Biso 1.000000    Zn
