#======================================================================

# CRYSTAL DATA

#----------------------------------------------------------------------

data_VESTA_phase_1


_pd_phase_name                         MOF
_cell_length_a                         14.13200
_cell_length_b                         18.09300
_cell_length_c                         19.55300
_cell_angle_alpha                      98.82700
_cell_angle_beta                       90.06400
_cell_angle_gamma                      90.02700
_symmetry_space_group_name_H-M         "P 1"
_symmetry_Int_Tables_number            1

loop_
_symmetry_equiv_pos_as_xyz
   "x, y, z"

loop_
   _atom_site_label
   _atom_site_occupancy
   _atom_site_fract_x
   _atom_site_fract_y
   _atom_site_fract_z
   _atom_site_adp_type
   _atom_site_B_iso_or_equiv
   _atom_site_type_symbol
    H   1.0     0.022595     0.923903     0.364975  Biso 1.000000     H
    H   1.0     0.948948     0.928221     0.248691  Biso 1.000000     H
    H   1.0     0.934545     0.690137     0.211620  Biso 1.000000     H
    H   1.0     0.891524     0.631299     0.393812  Biso 1.000000     H
    H   1.0     0.951829     0.711550     0.434388  Biso 1.000000     H
    H   1.0     0.921102     0.596922     0.262371  Biso 1.000000     H
    H   1.0     0.004132     0.549967     0.308692  Biso 1.000000     H
    H   1.0     0.349832     0.639422     0.905651  Biso 1.000000     H
    H   1.0     0.485855     0.728012     0.917793  Biso 1.000000     H
    H   1.0     0.563325     0.655482     0.108196  Biso 1.000000     H
    H   1.0     0.473994     0.442084     0.093378  Biso 1.000000     H
    H   1.0     0.397926     0.464135     0.028763  Biso 1.000000     H
    H   1.0     0.558178     0.574521     0.161985  Biso 1.000000     H
    H   1.0     0.485481     0.508871     0.192321  Biso 1.000000     H
    H   1.0     0.091026     0.707170     0.102181  Biso 1.000000     H
    H   1.0     0.077136     0.827752     0.058481  Biso 1.000000     H
    H   1.0     0.378345     0.858685     0.095232  Biso 1.000000     H
    H   1.0     0.377823     0.739675     0.142992  Biso 1.000000     H
    H   1.0     0.104061     0.900807     0.977225  Biso 1.000000     H
    H   1.0     0.110102     0.023461     0.934152  Biso 1.000000     H
    H   1.0     0.338224     0.095974     0.058997  Biso 1.000000     H
    H   1.0     0.342791     0.976918     0.108957  Biso 1.000000     H
    H   1.0     0.022517     0.075954     0.135516  Biso 1.000000     H
    H   1.0     0.948272     0.072005     0.251554  Biso 1.000000     H
    H   1.0     0.933299     0.310048     0.287652  Biso 1.000000     H
    H   1.0     0.891366     0.368051     0.105367  Biso 1.000000     H
    H   1.0     0.952140     0.288025     0.065016  Biso 1.000000     H
    H   1.0     0.921018     0.403145     0.236868  Biso 1.000000     H
    H   1.0     0.004350     0.449864     0.190669  Biso 1.000000     H
    H   1.0     0.349919     0.360539     0.594334  Biso 1.000000     H
    H   1.0     0.485773     0.271948     0.582223  Biso 1.000000     H
    H   1.0     0.562916     0.344541     0.391890  Biso 1.000000     H
    H   1.0     0.474012     0.557905     0.406663  Biso 1.000000     H
    H   1.0     0.397976     0.535906     0.471221  Biso 1.000000     H
    H   1.0     0.557836     0.425534     0.338147  Biso 1.000000     H
    H   1.0     0.485110     0.491112     0.307716  Biso 1.000000     H
    H   1.0     0.090753     0.292749     0.397822  Biso 1.000000     H
    H   1.0     0.076852     0.172093     0.441517  Biso 1.000000     H
    H   1.0     0.377921     0.141272     0.404814  Biso 1.000000     H
    H   1.0     0.377369     0.260275     0.357061  Biso 1.000000     H
    H   1.0     0.103935     0.098996     0.522761  Biso 1.000000     H
    H   1.0     0.110182     0.976380     0.565927  Biso 1.000000     H
    H   1.0     0.338017     0.904084     0.441200  Biso 1.000000     H
    H   1.0     0.342352     0.023080     0.391149  Biso 1.000000     H
    H   1.0     0.977466     0.076048     0.635000  Biso 1.000000     H
    H   1.0     0.051109     0.071770     0.751289  Biso 1.000000     H
    H   1.0     0.065444     0.309858     0.788317  Biso 1.000000     H
    H   1.0     0.108492     0.368601     0.606120  Biso 1.000000     H
    H   1.0     0.048097     0.288401     0.565526  Biso 1.000000     H
    H   1.0     0.078879     0.403053     0.737546  Biso 1.000000     H
    H   1.0     0.995837     0.449990     0.691221  Biso 1.000000     H
    H   1.0     0.650216     0.360630     0.094329  Biso 1.000000     H
    H   1.0     0.514228     0.272012     0.082183  Biso 1.000000     H
    H   1.0     0.436712     0.344548     0.891794  Biso 1.000000     H
    H   1.0     0.526003     0.557967     0.906558  Biso 1.000000     H
    H   1.0     0.602055     0.535947     0.971197  Biso 1.000000     H
    H   1.0     0.441827     0.425475     0.837997  Biso 1.000000     H
    H   1.0     0.514481     0.491144     0.807657  Biso 1.000000     H
    H   1.0     0.909008     0.292872     0.897849  Biso 1.000000     H
    H   1.0     0.922893     0.172263     0.941496  Biso 1.000000     H
    H   1.0     0.621688     0.141341     0.904719  Biso 1.000000     H
    H   1.0     0.622211     0.260388     0.857023  Biso 1.000000     H
    H   1.0     0.895979     0.099199     0.022725  Biso 1.000000     H
    H   1.0     0.889940     0.976548     0.065796  Biso 1.000000     H
    H   1.0     0.661791     0.904046     0.940977  Biso 1.000000     H
    H   1.0     0.657217     0.023102     0.891018  Biso 1.000000     H
    H   1.0     0.977540     0.924026     0.864466  Biso 1.000000     H
    H   1.0     0.051779     0.927975     0.748427  Biso 1.000000     H
    H   1.0     0.066765     0.689934     0.712334  Biso 1.000000     H
    H   1.0     0.108670     0.631888     0.894610  Biso 1.000000     H
    H   1.0     0.047952     0.711944     0.934954  Biso 1.000000     H
    H   1.0     0.079031     0.596839     0.763101  Biso 1.000000     H
    H   1.0     0.995702     0.550111     0.809295  Biso 1.000000     H
    H   1.0     0.650068     0.639490     0.405642  Biso 1.000000     H
    H   1.0     0.514185     0.728059     0.417744  Biso 1.000000     H
    H   1.0     0.437064     0.655475     0.608084  Biso 1.000000     H
    H   1.0     0.526042     0.442099     0.593259  Biso 1.000000     H
    H   1.0     0.602097     0.464148     0.528733  Biso 1.000000     H
    H   1.0     0.442140     0.574451     0.661795  Biso 1.000000     H
    H   1.0     0.514860     0.508869     0.692226  Biso 1.000000     H
    H   1.0     0.909253     0.707280     0.602223  Biso 1.000000     H
    H   1.0     0.923145     0.827895     0.558450  Biso 1.000000     H
    H   1.0     0.622082     0.858742     0.595172  Biso 1.000000     H
    H   1.0     0.622647     0.739784     0.643005  Biso 1.000000     H
    H   1.0     0.896043     0.900972     0.477180  Biso 1.000000     H
    H   1.0     0.889779     0.023576     0.433987  Biso 1.000000     H
    H   1.0     0.661968     0.095895     0.558731  Biso 1.000000     H
    H   1.0     0.657657     0.976918     0.608811  Biso 1.000000     H
    C   1.0     0.071980     0.807054     0.421491  Biso 1.000000     C
    C   1.0     0.019923     0.804066     0.354272  Biso 1.000000     C
    C   1.0     0.002449     0.872541     0.331337  Biso 1.000000     C
    C   1.0     0.962911     0.875194     0.266579  Biso 1.000000     C
    C   1.0     0.941076     0.808430     0.223363  Biso 1.000000     C
    C   1.0     0.899943     0.808499     0.152390  Biso 1.000000     C
    C   1.0     0.954703     0.740031     0.246927  Biso 1.000000     C
    C   1.0    -0.007642     0.736869     0.312484  Biso 1.000000     C
    C   1.0     0.962379     0.656821     0.402112  Biso 1.000000     C
    C   1.0     0.021356     0.610996     0.445279  Biso 1.000000     C
    C   1.0    -0.006565     0.599955     0.283720  Biso 1.000000     C
    C   1.0     0.064921     0.594185     0.224659  Biso 1.000000     C
    C   1.0     0.287059     0.554839     0.992801  Biso 1.000000     C
    C   1.0     0.375881     0.598737     0.001713  Biso 1.000000     C
    C   1.0     0.395151     0.644443     0.951215  Biso 1.000000     C
    C   1.0     0.470251     0.694500     0.958038  Biso 1.000000     C
    C   1.0     0.529834     0.697975     0.015650  Biso 1.000000     C
    C   1.0     0.616648     0.747007     0.021107  Biso 1.000000     C
    C   1.0     0.513236     0.651798     0.065620  Biso 1.000000     C
    C   1.0     0.437597     0.601044     0.060177  Biso 1.000000     C
    C   1.0     0.409510     0.473361     0.084826  Biso 1.000000     C
    C   1.0     0.329332     0.435854     0.118222  Biso 1.000000     C
    C   1.0     0.484124     0.563265     0.173987  Biso 1.000000     C
    C   1.0     0.453283     0.620277     0.237392  Biso 1.000000     C
    C   1.0     0.153339     0.742390     0.100170  Biso 1.000000     C
    C   1.0     0.146043     0.810285     0.075334  Biso 1.000000     C
    C   1.0     0.227165     0.854916     0.073016  Biso 1.000000     C
    C   1.0     0.312195     0.828215     0.097209  Biso 1.000000     C
    C   1.0     0.313183     0.760697     0.122516  Biso 1.000000     C
    C   1.0     0.158004     0.941718     0.996899  Biso 1.000000     C
    C   1.0     0.160387     0.000000     0.972719  Biso 1.000000     C
    C   1.0     0.288222     0.050735     0.042788  Biso 1.000000     C
    C   1.0     0.290479     0.983899     0.069515  Biso 1.000000     C
    C   1.0     0.224729     0.927239     0.046466  Biso 1.000000     C
    C   1.0     0.072013     0.192652     0.078727  Biso 1.000000     C
    C   1.0     0.019762     0.195763     0.145796  Biso 1.000000     C
    C   1.0     0.002143     0.127391     0.168885  Biso 1.000000     C
    C   1.0     0.962277     0.124946     0.233515  Biso 1.000000     C
    C   1.0     0.939999     0.191806     0.276368  Biso 1.000000     C
    C   1.0     0.898482     0.191911     0.347183  Biso 1.000000     C
    C   1.0     0.953794     0.260087     0.252626  Biso 1.000000     C
    C   1.0    -0.008066     0.263040     0.187239  Biso 1.000000     C
    C   1.0     0.962347     0.342796     0.097336  Biso 1.000000     C
    C   1.0     0.021312     0.388817     0.054402  Biso 1.000000     C
    C   1.0    -0.006609     0.399963     0.215717  Biso 1.000000     C
    C   1.0     0.064793     0.405756     0.274966  Biso 1.000000     C
    C   1.0     0.287049     0.445191     0.507182  Biso 1.000000     C
    C   1.0     0.375785     0.401272     0.498303  Biso 1.000000     C
    C   1.0     0.395101     0.355523     0.548776  Biso 1.000000     C
    C   1.0     0.470131     0.305469     0.541976  Biso 1.000000     C
    C   1.0     0.529582     0.302017     0.484400  Biso 1.000000     C
    C   1.0     0.616363     0.253026     0.478912  Biso 1.000000     C
    C   1.0     0.512924     0.348215     0.434440  Biso 1.000000     C
    C   1.0     0.437371     0.398966     0.439863  Biso 1.000000     C
    C   1.0     0.409472     0.526662     0.415171  Biso 1.000000     C
    C   1.0     0.329321     0.564166     0.381683  Biso 1.000000     C
    C   1.0     0.483767     0.436732     0.326076  Biso 1.000000     C
    C   1.0     0.452793     0.379683     0.262658  Biso 1.000000     C
    C   1.0     0.153005     0.257499     0.399833  Biso 1.000000     C
    C   1.0     0.145711     0.189597     0.424661  Biso 1.000000     C
    C   1.0     0.226805     0.144981     0.426993  Biso 1.000000     C
    C   1.0     0.311786     0.171719     0.402824  Biso 1.000000     C
    C   1.0     0.312761     0.239239     0.377516  Biso 1.000000     C
    C   1.0     0.157836     0.058127     0.503119  Biso 1.000000     C
    C   1.0     0.160355    -0.010174     0.527362  Biso 1.000000     C
    C   1.0     0.288021     0.949266     0.457362  Biso 1.000000     C
    C   1.0     0.290145     0.016069     0.430576  Biso 1.000000     C
    C   1.0     0.224437     0.072671     0.453580  Biso 1.000000     C
    C   1.0     0.928048     0.192869     0.578450  Biso 1.000000     C
    C   1.0     0.980093     0.195886     0.645679  Biso 1.000000     C
    C   1.0     0.997579     0.127422     0.668633  Biso 1.000000     C
    C   1.0     0.037136     0.124789     0.733389  Biso 1.000000     C
    C   1.0     0.058935     0.191562     0.776602  Biso 1.000000     C
    C   1.0     0.100083     0.191509     0.847575  Biso 1.000000     C
    C   1.0     0.045304     0.259951     0.753019  Biso 1.000000     C
    C   1.0     0.000000     0.263094     0.687465  Biso 1.000000     C
    C   1.0     0.037611     0.343127     0.597821  Biso 1.000000     C
    C   1.0     0.978674     0.389013     0.554686  Biso 1.000000     C
    C   1.0     0.000000     0.400011     0.716203  Biso 1.000000     C
    C   1.0     0.935061     0.405795     0.775269  Biso 1.000000     C
    C   1.0     0.712948     0.445249     0.007201  Biso 1.000000     C
    C   1.0     0.624135     0.401339     0.998281  Biso 1.000000     C
    C   1.0     0.604900     0.355602     0.048763  Biso 1.000000     C
    C   1.0     0.529798     0.305546     0.041950  Biso 1.000000     C
    C   1.0     0.470222     0.302047     0.984330  Biso 1.000000     C
    C   1.0     0.383397     0.253017     0.978881  Biso 1.000000     C
    C   1.0     0.486793     0.348248     0.934376  Biso 1.000000     C
    C   1.0     0.562429     0.399009     0.939807  Biso 1.000000     C
    C   1.0     0.590482     0.526695     0.915133  Biso 1.000000     C
    C   1.0     0.670667     0.564189     0.881730  Biso 1.000000     C
    C   1.0     0.515876     0.436755     0.826000  Biso 1.000000     C
    C   1.0     0.546746     0.379741     0.762605  Biso 1.000000     C
    C   1.0     0.846692     0.257653     0.899847  Biso 1.000000     C
    C   1.0     0.853986     0.189740     0.924651  Biso 1.000000     C
    C   1.0     0.772863     0.145106     0.926955  Biso 1.000000     C
    C   1.0     0.687838     0.171818     0.902764  Biso 1.000000     C
    C   1.0     0.686850     0.239356     0.877491  Biso 1.000000     C
    C   1.0     0.842030     0.058292     0.003054  Biso 1.000000     C
    C   1.0     0.839648    -0.010041     0.027235  Biso 1.000000     C
    C   1.0     0.711799     0.949282     0.957179  Biso 1.000000     C
    C   1.0     0.709539     0.016119     0.930452  Biso 1.000000     C
    C   1.0     0.775298     0.072775     0.953493  Biso 1.000000     C
    C   1.0     0.928035     0.807340     0.921254  Biso 1.000000     C
    C   1.0     0.980293     0.804219     0.854186  Biso 1.000000     C
    C   1.0     0.997932     0.872591     0.831102  Biso 1.000000     C
    C   1.0     0.037771     0.875033     0.766463  Biso 1.000000     C
    C   1.0     0.060071     0.808172     0.723619  Biso 1.000000     C
    C   1.0     0.101556     0.808061     0.652793  Biso 1.000000     C
    C   1.0     0.046259     0.739892     0.747359  Biso 1.000000     C
    C   1.0     0.000000     0.736942     0.812753  Biso 1.000000     C
    C   1.0     0.037705     0.657172     0.902643  Biso 1.000000     C
    C   1.0     0.978715     0.611187     0.945594  Biso 1.000000     C
    C   1.0     0.000000     0.600018     0.784255  Biso 1.000000     C
    C   1.0     0.935253     0.594237     0.725009  Biso 1.000000     C
    C   1.0     0.712986     0.554908     0.492830  Biso 1.000000     C
    C   1.0     0.624216     0.598780     0.501687  Biso 1.000000     C
    C   1.0     0.604886     0.644506     0.451199  Biso 1.000000     C
    C   1.0     0.529847     0.694551     0.457997  Biso 1.000000     C
    C   1.0     0.470405     0.698000     0.515577  Biso 1.000000     C
    C   1.0     0.383631     0.746990     0.521064  Biso 1.000000     C
    C   1.0     0.487065     0.651806     0.565539  Biso 1.000000     C
    C   1.0     0.562625     0.601064     0.560119  Biso 1.000000     C
    C   1.0     0.590572     0.473369     0.584782  Biso 1.000000     C
    C   1.0     0.670724     0.435870     0.618277  Biso 1.000000     C
    C   1.0     0.516206     0.563258     0.673881  Biso 1.000000     C
    C   1.0     0.547138     0.620300     0.737317  Biso 1.000000     C
    C   1.0     0.847005     0.742534     0.600209  Biso 1.000000     C
    C   1.0     0.854290     0.810404     0.575324  Biso 1.000000     C
    C   1.0     0.773200     0.855025     0.572995  Biso 1.000000     C
    C   1.0     0.688218     0.828298     0.597172  Biso 1.000000     C
    C   1.0     0.687252     0.760811     0.622536  Biso 1.000000     C
    C   1.0     0.842149     0.941847     0.496823  Biso 1.000000     C
    C   1.0     0.839613     0.000000     0.472559  Biso 1.000000     C
    C   1.0     0.711960     0.050710     0.542568  Biso 1.000000     C
    C   1.0     0.709855     0.983920     0.569375  Biso 1.000000     C
    C   1.0     0.775552     0.927312     0.546367  Biso 1.000000     C
    N   1.0     0.008231     0.666142     0.336362  Biso 1.000000     N
    N   1.0     0.423442     0.553451     0.111274  Biso 1.000000     N
    N   1.0     0.235584     0.717433     0.123451  Biso 1.000000     N
    N   1.0     0.224255     0.063774     0.994910  Biso 1.000000     N
    N   1.0     0.008085     0.333657     0.163235  Biso 1.000000     N
    N   1.0     0.423201     0.446560     0.388747  Biso 1.000000     N
    N   1.0     0.235205     0.282494     0.376577  Biso 1.000000     N
    N   1.0     0.224195     0.936171     0.505224  Biso 1.000000     N
    N   1.0     0.991750     0.333813     0.663571  Biso 1.000000     N
    N   1.0     0.576565     0.446599     0.888708  Biso 1.000000     N
    N   1.0     0.764446     0.282629     0.876583  Biso 1.000000     N
    N   1.0     0.775774     0.936239     0.005049  Biso 1.000000     N
    N   1.0     0.991971     0.666320     0.836745  Biso 1.000000     N
    N   1.0     0.576806     0.553461     0.611227  Biso 1.000000     N
    N   1.0     0.764806     0.717558     0.623484  Biso 1.000000     N
    N   1.0     0.775780     0.063798     0.494699  Biso 1.000000     N
    O   1.0     0.151944     0.770856     0.421088  Biso 1.000000     O
    O   1.0     0.041226     0.846187     0.474915  Biso 1.000000     O
    O   1.0     0.860051     0.868970     0.140997  Biso 1.000000     O
    O   1.0     0.904882     0.749392     0.108199  Biso 1.000000     O
    O   1.0     0.110171     0.606761     0.438706  Biso 1.000000     O
    O   1.0     0.980065     0.577918     0.490975  Biso 1.000000     O
    O   1.0     0.147040     0.625063     0.240428  Biso 1.000000     O
    O   1.0     0.044999     0.559529     0.166560  Biso 1.000000     O
    O   1.0     0.255055     0.527733     0.932723  Biso 1.000000     O
    O   1.0     0.238303     0.544720     0.046410  Biso 1.000000     O
    O   1.0     0.621294     0.799930     0.986073  Biso 1.000000     O
    O   1.0     0.683227     0.730891     0.061208  Biso 1.000000     O
    O   1.0     0.275883     0.471195     0.164250  Biso 1.000000     O
    O   1.0     0.320410     0.366135     0.096292  Biso 1.000000     O
    O   1.0     0.371620     0.653021     0.236358  Biso 1.000000     O
    O   1.0     0.509904     0.628344     0.286454  Biso 1.000000     O
    O   1.0     0.152083     0.228795     0.079323  Biso 1.000000     O
    O   1.0     0.041266     0.153508     0.025235  Biso 1.000000     O
    O   1.0     0.860018     0.131027     0.358974  Biso 1.000000     O
    O   1.0     0.901772     0.251487     0.390915  Biso 1.000000     O
    O   1.0     0.110131     0.393089     0.061121  Biso 1.000000     O
    O   1.0     0.980005     0.422026     0.008755  Biso 1.000000     O
    O   1.0     0.146882     0.374889     0.259354  Biso 1.000000     O
    O   1.0     0.044928     0.440387     0.333041  Biso 1.000000     O
    O   1.0     0.255160     0.472216     0.567252  Biso 1.000000     O
    O   1.0     0.238270     0.455440     0.453554  Biso 1.000000     O
    O   1.0     0.621186     0.200087     0.513928  Biso 1.000000     O
    O   1.0     0.682755     0.269189     0.438776  Biso 1.000000     O
    O   1.0     0.275784     0.528800     0.335612  Biso 1.000000     O
    O   1.0     0.320500     0.633888     0.403597  Biso 1.000000     O
    O   1.0     0.371051     0.346970     0.263627  Biso 1.000000     O
    O   1.0     0.509387     0.371570     0.213676  Biso 1.000000     O
    O   1.0     0.848105     0.229098     0.578815  Biso 1.000000     O
    O   1.0     0.958800     0.153694     0.525051  Biso 1.000000     O
    O   1.0     0.139984     0.131042     0.858972  Biso 1.000000     O
    O   1.0     0.095140     0.250617     0.891763  Biso 1.000000     O
    O   1.0     0.889854     0.393263     0.561258  Biso 1.000000     O
    O   1.0     0.019987     0.422122     0.509026  Biso 1.000000     O
    O   1.0     0.852930     0.374937     0.759501  Biso 1.000000     O
    O   1.0     0.954997     0.440449     0.833367  Biso 1.000000     O
    O   1.0     0.744983     0.472280     0.067292  Biso 1.000000     O
    O   1.0     0.761655     0.455474     0.953598  Biso 1.000000     O
    O   1.0     0.378751     0.200097     0.013919  Biso 1.000000     O
    O   1.0     0.316816     0.269126     0.938777  Biso 1.000000     O
    O   1.0     0.724122     0.528841     0.835707  Biso 1.000000     O
    O   1.0     0.679600     0.633908     0.903652  Biso 1.000000     O
    O   1.0     0.628415     0.347011     0.763657  Biso 1.000000     O
    O   1.0     0.490140     0.371659     0.713533  Biso 1.000000     O
    O   1.0     0.847957     0.771206     0.920646  Biso 1.000000     O
    O   1.0     0.958767     0.846489     0.974748  Biso 1.000000     O
    O   1.0     0.139992     0.868950     0.640984  Biso 1.000000     O
    O   1.0     0.098269     0.748476     0.609071  Biso 1.000000     O
    O   1.0     0.889898     0.606927     0.938875  Biso 1.000000     O
    O   1.0     0.020009     0.577993     0.991259  Biso 1.000000     O
    O   1.0     0.853169     0.625111     0.740627  Biso 1.000000     O
    O   1.0     0.955111     0.559612     0.666930  Biso 1.000000     O
    O   1.0     0.744846     0.527792     0.432775  Biso 1.000000     O
    O   1.0     0.761822     0.544793     0.546467  Biso 1.000000     O
    O   1.0     0.378818     0.799938     0.486060  Biso 1.000000     O
    O   1.0     0.317236     0.730822     0.561197  Biso 1.000000     O
    O   1.0     0.724266     0.471241     0.664335  Biso 1.000000     O
    O   1.0     0.679537     0.366145     0.596362  Biso 1.000000     O
    O   1.0     0.628870     0.653033     0.736377  Biso 1.000000     O
    O   1.0     0.490523     0.628393     0.786286  Biso 1.000000     O
   Cd   1.0     0.208839     0.816337     0.536975  Biso 1.000000    Cd
   Cd   1.0     0.192995     0.664853     0.350260  Biso 1.000000    Cd
   Cd   1.0     0.126042     0.476324     0.980063  Biso 1.000000    Cd
   Cd   1.0     0.264484     0.600452     0.161138  Biso 1.000000    Cd
   Cd   1.0     0.208454     0.183571     0.963247  Biso 1.000000    Cd
   Cd   1.0     0.193116     0.335109     0.149736  Biso 1.000000    Cd
   Cd   1.0     0.126227     0.523797     0.519947  Biso 1.000000    Cd
   Cd   1.0     0.264187     0.399537     0.338899  Biso 1.000000    Cd
   Cd   1.0     0.791140     0.183642     0.462970  Biso 1.000000    Cd
   Cd   1.0     0.807024     0.335099     0.649659  Biso 1.000000    Cd
   Cd   1.0     0.873994     0.523733     0.020002  Biso 1.000000    Cd
   Cd   1.0     0.735562     0.399605     0.838866  Biso 1.000000    Cd
   Cd   1.0     0.791582     0.816447     0.036718  Biso 1.000000    Cd
   Cd   1.0     0.806959     0.664880     0.850250  Biso 1.000000    Cd
   Cd   1.0     0.873801     0.476302     0.480120  Biso 1.000000    Cd
   Cd   1.0     0.735783     0.600515     0.661141  Biso 1.000000    Cd
