#======================================================================

# CRYSTAL DATA

#----------------------------------------------------------------------

data_VESTA_phase_1


_pd_phase_name                         MOF
_cell_length_a                         14.44300
_cell_length_b                         17.92500
_cell_length_c                         17.93100
_cell_angle_alpha                      80.56900
_cell_angle_beta                       66.11900
_cell_angle_gamma                      66.12600
_symmetry_space_group_name_H-M         "P 1"
_symmetry_Int_Tables_number            1

loop_
_symmetry_equiv_pos_as_xyz
   "x, y, z"

loop_
   _atom_site_label
   _atom_site_occupancy
   _atom_site_fract_x
   _atom_site_fract_y
   _atom_site_fract_z
   _atom_site_adp_type
   _atom_site_B_iso_or_equiv
   _atom_site_type_symbol
    H   1.0     0.693645     0.420086     0.136820  Biso 1.000000     H
    H   1.0     0.738874     0.746689     0.198746  Biso 1.000000     H
    H   1.0     0.730131     0.853529     0.274702  Biso 1.000000     H
    H   1.0     0.778358     0.573877     0.392091  Biso 1.000000     H
    H   1.0     0.789674     0.855802     0.518935  Biso 1.000000     H
    H   1.0     0.818375     0.715660     0.575244  Biso 1.000000     H
    H   1.0     0.804884     0.612751     0.506930  Biso 1.000000     H
    H   1.0     0.747626     0.894414     0.393117  Biso 1.000000     H
    H   1.0     0.749318     0.080222     0.363715  Biso 1.000000     H
    H   1.0     0.184549     0.753099     0.301239  Biso 1.000000     H
    H   1.0     0.359289     0.646153     0.225167  Biso 1.000000     H
    H   1.0     0.244575     0.925722     0.107629  Biso 1.000000     H
    H   1.0     0.666242     0.643541     0.980429  Biso 1.000000     H
    H   1.0     0.610754     0.783668     0.924073  Biso 1.000000     H
    H   1.0     0.425394     0.886703     0.992588  Biso 1.000000     H
    H   1.0     0.536732     0.605091     0.106507  Biso 1.000000     H
    H   1.0     0.830207     0.863811     0.920130  Biso 1.000000     H
    H   1.0     0.937618     0.801420     0.246695  Biso 1.000000     H
    H   1.0     0.005149     0.725389     0.353519  Biso 1.000000     H
    H   1.0     0.170586     0.607591     0.074193  Biso 1.000000     H
    H   1.0     0.309524     0.480631     0.355965  Biso 1.000000     H
    H   1.0     0.394432     0.424087     0.215985  Biso 1.000000     H
    H   1.0     0.312306     0.492488     0.113123  Biso 1.000000     H
    H   1.0     0.141411     0.606770     0.394458  Biso 1.000000     H
    H   1.0     0.112698     0.636869     0.580187  Biso 1.000000     H
    H   1.0     0.485516     0.698932     0.253188  Biso 1.000000     H
    H   1.0     0.583937     0.774970     0.146280  Biso 1.000000     H
    H   1.0     0.352094     0.892114     0.426042  Biso 1.000000     H
    H   1.0     0.646037     0.019197     0.143874  Biso 1.000000     H
    H   1.0     0.534413     0.075347     0.284080  Biso 1.000000     H
    H   1.0     0.417738     0.006921     0.387096  Biso 1.000000     H
    H   1.0     0.642561     0.893446     0.105316  Biso 1.000000     H
    H   1.0     0.306356     0.579939     0.863193  Biso 1.000000     H
    H   1.0     0.261126     0.253332     0.801270  Biso 1.000000     H
    H   1.0     0.269871     0.146492     0.725312  Biso 1.000000     H
    H   1.0     0.221642     0.426145     0.607926  Biso 1.000000     H
    H   1.0     0.210330     0.144221     0.481079  Biso 1.000000     H
    H   1.0     0.181627     0.284364     0.424771  Biso 1.000000     H
    H   1.0     0.195117     0.387272     0.493086  Biso 1.000000     H
    H   1.0     0.252377     0.105608     0.606897  Biso 1.000000     H
    H   1.0     0.250687     0.919806     0.636300  Biso 1.000000     H
    H   1.0     0.815452     0.246924     0.698777  Biso 1.000000     H
    H   1.0     0.640712     0.353869     0.774848  Biso 1.000000     H
    H   1.0     0.755426     0.074301     0.892387  Biso 1.000000     H
    H   1.0     0.333759     0.356482     0.019585  Biso 1.000000     H
    H   1.0     0.389246     0.216356     0.075942  Biso 1.000000     H
    H   1.0     0.574606     0.113320     0.007427  Biso 1.000000     H
    H   1.0     0.463269     0.394931     0.893508  Biso 1.000000     H
    H   1.0     0.169805     0.136210     0.079879  Biso 1.000000     H
    H   1.0     0.062384     0.198603     0.753321  Biso 1.000000     H
    H   1.0     0.994853     0.274633     0.646497  Biso 1.000000     H
    H   1.0     0.829416     0.392434     0.925822  Biso 1.000000     H
    H   1.0     0.690479     0.519390     0.644049  Biso 1.000000     H
    H   1.0     0.605570     0.575935     0.784029  Biso 1.000000     H
    H   1.0     0.687696     0.507536     0.886891  Biso 1.000000     H
    H   1.0     0.858591     0.393252     0.605557  Biso 1.000000     H
    H   1.0     0.887308     0.363147     0.419822  Biso 1.000000     H
    H   1.0     0.514485     0.301091     0.746828  Biso 1.000000     H
    H   1.0     0.416064     0.225052     0.853736  Biso 1.000000     H
    H   1.0     0.647907     0.107910     0.573973  Biso 1.000000     H
    H   1.0     0.353965     0.980825     0.856140  Biso 1.000000     H
    H   1.0     0.465588     0.924676     0.715934  Biso 1.000000     H
    H   1.0     0.582263     0.993103     0.612917  Biso 1.000000     H
    H   1.0     0.357441     0.106576     0.894699  Biso 1.000000     H
    C   1.0     0.749676     0.594215     0.249215  Biso 1.000000     C
    C   1.0     0.688865     0.509474     0.226645  Biso 1.000000     C
    C   1.0     0.615929     0.464524     0.247246  Biso 1.000000     C
    C   1.0     0.771604     0.517802     0.154741  Biso 1.000000     C
    C   1.0     0.820677     0.477069     0.075126  Biso 1.000000     C
    C   1.0     0.757790     0.653563     0.291476  Biso 1.000000     C
    C   1.0     0.747585     0.732582     0.257424  Biso 1.000000     C
    C   1.0     0.771806     0.693635     0.408888  Biso 1.000000     C
    C   1.0     0.756203     0.774537     0.375911  Biso 1.000000     C
    C   1.0     0.742980     0.792073     0.299913  Biso 1.000000     C
    C   1.0     0.768775     0.634937     0.366442  Biso 1.000000     C
    C   1.0     0.782986     0.811602     0.488190  Biso 1.000000     C
    C   1.0     0.799382     0.731658     0.520364  Biso 1.000000     C
    C   1.0     0.792552     0.674310     0.482120  Biso 1.000000     C
    C   1.0     0.760484     0.832827     0.418047  Biso 1.000000     C
    C   1.0     0.092944     0.905670     0.250755  Biso 1.000000     C
    C   1.0     0.924303     0.990673     0.273652  Biso 1.000000     C
    C   1.0     0.826656     0.035585     0.253383  Biso 1.000000     C
    C   1.0     0.943640     0.982507     0.345317  Biso 1.000000     C
    C   1.0     0.872343     0.023507     0.424881  Biso 1.000000     C
    C   1.0     0.203024     0.846154     0.208385  Biso 1.000000     C
    C   1.0     0.237966     0.767145     0.242466  Biso 1.000000     C
    C   1.0     0.375129     0.805915     0.090787  Biso 1.000000     C
    C   1.0     0.407652     0.725031     0.123802  Biso 1.000000     C
    C   1.0     0.335747     0.707593     0.199916  Biso 1.000000     C
    C   1.0     0.270547     0.864679     0.133307  Biso 1.000000     C
    C   1.0     0.584332     0.687802     0.011270  Biso 1.000000     C
    C   1.0     0.552749     0.767733     0.979067  Biso 1.000000     C
    C   1.0     0.449959     0.825154     0.000000  Biso 1.000000     C
    C   1.0     0.512755     0.666672     0.081568  Biso 1.000000     C
    C   1.0    -0.001155     0.750846     0.094362  Biso 1.000000     C
    C   1.0     0.915381     0.773737     0.009571  Biso 1.000000     C
    C   1.0     0.862974     0.753391     0.964628  Biso 1.000000     C
    C   1.0     0.926216     0.845513     0.017873  Biso 1.000000     C
    C   1.0     0.895778     0.925148     0.977018  Biso 1.000000     C
    C   1.0     0.049331     0.708458     0.153724  Biso 1.000000     C
    C   1.0     0.005120     0.742611     0.232649  Biso 1.000000     C
    C   1.0     0.181069     0.590822     0.193860  Biso 1.000000     C
    C   1.0     0.132546     0.623927     0.274669  Biso 1.000000     C
    C   1.0     0.043188     0.700088     0.292127  Biso 1.000000     C
    C   1.0     0.135391     0.633323     0.135183  Biso 1.000000     C
    C   1.0     0.271931     0.511412     0.311789  Biso 1.000000     C
    C   1.0     0.320448     0.479113     0.231935  Biso 1.000000     C
    C   1.0     0.275184     0.517402     0.174610  Biso 1.000000     C
    C   1.0     0.179160     0.581744     0.332939  Biso 1.000000     C
    C   1.0     0.343566     0.749303     0.405808  Biso 1.000000     C
    C   1.0     0.197675     0.726704     0.490703  Biso 1.000000     C
    C   1.0     0.079581     0.747261     0.535620  Biso 1.000000     C
    C   1.0     0.288835     0.654857     0.482476  Biso 1.000000     C
    C   1.0     0.297124     0.575262     0.523346  Biso 1.000000     C
    C   1.0     0.411244     0.791578     0.346348  Biso 1.000000     C
    C   1.0     0.480153     0.757599     0.267283  Biso 1.000000     C
    C   1.0     0.465576     0.909008     0.306203  Biso 1.000000     C
    C   1.0     0.530977     0.876115     0.225267  Biso 1.000000     C
    C   1.0     0.535229     0.800133     0.207754  Biso 1.000000     C
    C   1.0     0.403652     0.866525     0.364953  Biso 1.000000     C
    C   1.0     0.595038     0.988425     0.188125  Biso 1.000000     C
    C   1.0     0.531380     0.020490     0.268102  Biso 1.000000     C
    C   1.0     0.467042    -0.017810     0.325507  Biso 1.000000     C
    C   1.0     0.593733     0.918301     0.166929  Biso 1.000000     C
    C   1.0     0.250324     0.405807     0.750802  Biso 1.000000     C
    C   1.0     0.311135     0.490548     0.773371  Biso 1.000000     C
    C   1.0     0.384071     0.535498     0.752767  Biso 1.000000     C
    C   1.0     0.228398     0.482220     0.845275  Biso 1.000000     C
    C   1.0     0.179325     0.522954     0.924890  Biso 1.000000     C
    C   1.0     0.242210     0.346459     0.708541  Biso 1.000000     C
    C   1.0     0.252415     0.267440     0.742592  Biso 1.000000     C
    C   1.0     0.228195     0.306387     0.591128  Biso 1.000000     C
    C   1.0     0.243799     0.225485     0.624104  Biso 1.000000     C
    C   1.0     0.257021     0.207949     0.700102  Biso 1.000000     C
    C   1.0     0.231225     0.365086     0.633575  Biso 1.000000     C
    C   1.0     0.217016     0.188421     0.511825  Biso 1.000000     C
    C   1.0     0.200620     0.268365     0.479651  Biso 1.000000     C
    C   1.0     0.207450     0.325713     0.517896  Biso 1.000000     C
    C   1.0     0.239519     0.167196     0.581967  Biso 1.000000     C
    C   1.0     0.907058     0.094353     0.749261  Biso 1.000000     C
    C   1.0     0.075700     0.009352     0.726363  Biso 1.000000     C
    C   1.0     0.173351     0.964446     0.746630  Biso 1.000000     C
    C   1.0     0.056363     0.017516     0.654700  Biso 1.000000     C
    C   1.0     0.127659     0.976515     0.575136  Biso 1.000000     C
    C   1.0     0.796978     0.153869     0.791631  Biso 1.000000     C
    C   1.0     0.762035     0.232877     0.757549  Biso 1.000000     C
    C   1.0     0.624871     0.194108     0.909228  Biso 1.000000     C
    C   1.0     0.592349     0.274991     0.876213  Biso 1.000000     C
    C   1.0     0.664254     0.292430     0.800098  Biso 1.000000     C
    C   1.0     0.729454     0.135343     0.866708  Biso 1.000000     C
    C   1.0     0.415669     0.312221     0.988745  Biso 1.000000     C
    C   1.0     0.447251     0.232290     0.020948  Biso 1.000000     C
    C   1.0     0.550041     0.174869    -0.017401  Biso 1.000000     C
    C   1.0     0.487246     0.333351     0.918446  Biso 1.000000     C
    C   1.0     0.000000     0.249179     0.905654  Biso 1.000000     C
    C   1.0     0.084621     0.226287     0.990446  Biso 1.000000     C
    C   1.0     0.137029     0.246632     0.035389  Biso 1.000000     C
    C   1.0     0.073789     0.154511     0.982141  Biso 1.000000     C
    C   1.0     0.104226     0.074875     0.022995  Biso 1.000000     C
    C   1.0     0.950671     0.291566     0.846292  Biso 1.000000     C
    C   1.0     0.994882     0.257412     0.767367  Biso 1.000000     C
    C   1.0     0.818933     0.409201     0.806155  Biso 1.000000     C
    C   1.0     0.867456     0.376096     0.725346  Biso 1.000000     C
    C   1.0     0.956814     0.299934     0.707889  Biso 1.000000     C
    C   1.0     0.864611     0.366701     0.864833  Biso 1.000000     C
    C   1.0     0.728072     0.488610     0.688226  Biso 1.000000     C
    C   1.0     0.679554     0.520909     0.768080  Biso 1.000000     C
    C   1.0     0.724818     0.482622     0.825404  Biso 1.000000     C
    C   1.0     0.820842     0.418278     0.667076  Biso 1.000000     C
    C   1.0     0.656436     0.250719     0.594208  Biso 1.000000     C
    C   1.0     0.802329     0.273316     0.509312  Biso 1.000000     C
    C   1.0     0.920422     0.252757     0.464392  Biso 1.000000     C
    C   1.0     0.711169     0.345164     0.517539  Biso 1.000000     C
    C   1.0     0.702881     0.424758     0.476668  Biso 1.000000     C
    C   1.0     0.588757     0.208445     0.653668  Biso 1.000000     C
    C   1.0     0.519848     0.242424     0.732733  Biso 1.000000     C
    C   1.0     0.534425     0.091015     0.693811  Biso 1.000000     C
    C   1.0     0.469025     0.123907     0.774748  Biso 1.000000     C
    C   1.0     0.464772     0.199889     0.792261  Biso 1.000000     C
    C   1.0     0.596349     0.133499     0.635062  Biso 1.000000     C
    C   1.0     0.404964     0.011597     0.811889  Biso 1.000000     C
    C   1.0     0.468621     0.979533     0.731912  Biso 1.000000     C
    C   1.0     0.532959     0.000000     0.674507  Biso 1.000000     C
    C   1.0     0.406268     0.081721     0.833085  Biso 1.000000     C
    N   1.0     0.676728     0.557438     0.284976  Biso 1.000000     N
    N   1.0     0.808833     0.571218     0.169803  Biso 1.000000     N
    N   1.0     0.018688     0.942438     0.215255  Biso 1.000000     N
    N   1.0     0.049672     0.928942     0.330043  Biso 1.000000     N
    N   1.0     0.961571     0.715281     0.057606  Biso 1.000000     N
    N   1.0    -0.021426     0.830248     0.071318  Biso 1.000000     N
    N   1.0     0.233666     0.785015     0.442579  Biso 1.000000     N
    N   1.0     0.379678     0.669948     0.428984  Biso 1.000000     N
    N   1.0     0.323273     0.442583     0.715040  Biso 1.000000     N
    N   1.0     0.191168     0.428804     0.830214  Biso 1.000000     N
    N   1.0     0.981315     0.057587     0.784761  Biso 1.000000     N
    N   1.0     0.950330     0.071080     0.669974  Biso 1.000000     N
    N   1.0     0.038430     0.284743     0.942412  Biso 1.000000     N
    N   1.0     0.021453     0.169776     0.928697  Biso 1.000000     N
    N   1.0     0.766336     0.215006     0.557438  Biso 1.000000     N
    N   1.0     0.620325     0.330074     0.571032  Biso 1.000000     N
    O   1.0     0.542837     0.471067     0.316781  Biso 1.000000     O
    O   1.0     0.627999     0.418873     0.191088  Biso 1.000000     O
    O   1.0     0.900542     0.494752     0.020258  Biso 1.000000     O
    O   1.0     0.785326     0.427578     0.064086  Biso 1.000000     O
    O   1.0     0.829591     0.029020     0.183999  Biso 1.000000     O
    O   1.0     0.736625     0.081318     0.309665  Biso 1.000000     O
    O   1.0     0.915412     0.005990     0.479390  Biso 1.000000     O
    O   1.0     0.776099     0.072977     0.436212  Biso 1.000000     O
    O   1.0     0.859443     0.683941     0.971170  Biso 1.000000     O
    O   1.0     0.818844     0.809649     0.918924  Biso 1.000000     O
    O   1.0     0.920979     0.979806     0.994580  Biso 1.000000     O
    O   1.0     0.849231     0.936412     0.927576  Biso 1.000000     O
    O   1.0     0.013034     0.816778     0.529045  Biso 1.000000     O
    O   1.0     0.045833     0.691080     0.581334  Biso 1.000000     O
    O   1.0     0.394840     0.520509     0.505722  Biso 1.000000     O
    O   1.0     0.212109     0.564136     0.572808  Biso 1.000000     O
    O   1.0     0.457163     0.528954     0.683233  Biso 1.000000     O
    O   1.0     0.371998     0.581154     0.808923  Biso 1.000000     O
    O   1.0     0.099458     0.505274     0.979758  Biso 1.000000     O
    O   1.0     0.214681     0.572441     0.935931  Biso 1.000000     O
    O   1.0     0.170417     0.971015     0.816013  Biso 1.000000     O
    O   1.0     0.263383     0.918714     0.690347  Biso 1.000000     O
    O   1.0     0.084589     0.994030     0.520627  Biso 1.000000     O
    O   1.0     0.223903     0.927045     0.563805  Biso 1.000000     O
    O   1.0     0.140551     0.316085     0.028853  Biso 1.000000     O
    O   1.0     0.181168     0.190371     0.081086  Biso 1.000000     O
    O   1.0     0.079024     0.020218     0.005433  Biso 1.000000     O
    O   1.0     0.150778     0.063609     0.072435  Biso 1.000000     O
    O   1.0     0.986968     0.183240     0.470968  Biso 1.000000     O
    O   1.0     0.954172     0.308936     0.418675  Biso 1.000000     O
    O   1.0     0.605166     0.479514     0.494293  Biso 1.000000     O
    O   1.0     0.787897     0.435882     0.427203  Biso 1.000000     O
   Cd   1.0     0.537449     0.562027     0.402865  Biso 1.000000    Cd
   Cd   1.0     0.001899     0.938120     0.097481  Biso 1.000000    Cd
   Cd   1.0     0.940352     0.597445     0.061941  Biso 1.000000    Cd
   Cd   1.0     0.099135     0.902891     0.437937  Biso 1.000000    Cd
   Cd   1.0     0.462554     0.437993     0.597151  Biso 1.000000    Cd
   Cd   1.0     0.998104     0.061905     0.902534  Biso 1.000000    Cd
   Cd   1.0     0.059648     0.402579     0.938077  Biso 1.000000    Cd
   Cd   1.0     0.900866     0.097129     0.562080  Biso 1.000000    Cd
