#======================================================================

# CRYSTAL DATA

#----------------------------------------------------------------------

data_VESTA_phase_1


_pd_phase_name                         MOF
_cell_length_a                         18.87100
_cell_length_b                         12.18800
_cell_length_c                         25.30900
_cell_angle_alpha                      90.00300
_cell_angle_beta                       90.00000
_cell_angle_gamma                      88.18100
_symmetry_space_group_name_H-M         "P 1"
_symmetry_Int_Tables_number            1

loop_
_symmetry_equiv_pos_as_xyz
   "x, y, z"

loop_
   _atom_site_label
   _atom_site_occupancy
   _atom_site_fract_x
   _atom_site_fract_y
   _atom_site_fract_z
   _atom_site_adp_type
   _atom_site_B_iso_or_equiv
   _atom_site_type_symbol
    H   1.0     0.181668     0.767319     0.822958  Biso 1.000000     H
    H   1.0     0.681673     0.767320     0.822956  Biso 1.000000     H
    H   1.0     0.142177     0.886995     0.796713  Biso 1.000000     H
    H   1.0     0.642179     0.886996     0.796713  Biso 1.000000     H
    H   1.0     0.041942     0.655570     0.866302  Biso 1.000000     H
    H   1.0     0.541948     0.655566     0.866301  Biso 1.000000     H
    H   1.0     0.432667     0.541221     0.702741  Biso 1.000000     H
    H   1.0     0.932674     0.541225     0.702741  Biso 1.000000     H
    H   1.0     0.238601     0.282838     0.708115  Biso 1.000000     H
    H   1.0     0.738608     0.282841     0.708114  Biso 1.000000     H
    H   1.0     0.288650     0.346885     0.792571  Biso 1.000000     H
    H   1.0     0.788656     0.346888     0.792570  Biso 1.000000     H
    H   1.0     0.423956     0.570117     0.872491  Biso 1.000000     H
    H   1.0     0.923962     0.570120     0.872491  Biso 1.000000     H
    H   1.0     0.221210     0.338238     0.876432  Biso 1.000000     H
    H   1.0     0.721218     0.338232     0.876430  Biso 1.000000     H
    H   1.0     0.158552     0.314263     0.968088  Biso 1.000000     H
    H   1.0     0.658558     0.314260     0.968086  Biso 1.000000     H
    H   1.0     0.208621     0.344199     0.025334  Biso 1.000000     H
    H   1.0     0.708625     0.344199     0.025332  Biso 1.000000     H
    H   1.0     0.206230     0.302984     0.563967  Biso 1.000000     H
    H   1.0     0.706238     0.302987     0.563967  Biso 1.000000     H
    H   1.0     0.181546     0.224156     0.618998  Biso 1.000000     H
    H   1.0     0.681554     0.224161     0.618997  Biso 1.000000     H
    H   1.0     0.068331     0.232706     0.322975  Biso 1.000000     H
    H   1.0     0.568336     0.232706     0.322975  Biso 1.000000     H
    H   1.0     0.107813     0.113025     0.296721  Biso 1.000000     H
    H   1.0     0.607819     0.113026     0.296722  Biso 1.000000     H
    H   1.0     0.208055     0.344462     0.366308  Biso 1.000000     H
    H   1.0     0.708058     0.344465     0.366308  Biso 1.000000     H
    H   1.0     0.317327     0.458781     0.202747  Biso 1.000000     H
    H   1.0     0.817333     0.458783     0.202749  Biso 1.000000     H
    H   1.0     0.511392     0.717167     0.208122  Biso 1.000000     H
    H   1.0     0.000000     0.717165     0.208123  Biso 1.000000     H
    H   1.0     0.461348     0.653127     0.292578  Biso 1.000000     H
    H   1.0     0.961354     0.653128     0.292581  Biso 1.000000     H
    H   1.0     0.326049     0.429897     0.372495  Biso 1.000000     H
    H   1.0     0.826052     0.429899     0.372497  Biso 1.000000     H
    H   1.0     0.528809     0.661745     0.376438  Biso 1.000000     H
    H   1.0     0.000000     0.661728     0.376442  Biso 1.000000     H
    H   1.0     0.091454     0.685750     0.468098  Biso 1.000000     H
    H   1.0     0.591462     0.685756     0.468093  Biso 1.000000     H
    H   1.0     0.041381     0.655816     0.525329  Biso 1.000000     H
    H   1.0     0.541391     0.655815     0.525324  Biso 1.000000     H
    H   1.0     0.043745     0.697000     0.063975  Biso 1.000000     H
    H   1.0     0.543751     0.697002     0.063973  Biso 1.000000     H
    H   1.0     0.068439     0.775830     0.119005  Biso 1.000000     H
    H   1.0     0.568445     0.775830     0.119004  Biso 1.000000     H
    H   1.0     0.318339     0.232691     0.177032  Biso 1.000000     H
    H   1.0     0.818344     0.232695     0.177031  Biso 1.000000     H
    H   1.0     0.357838     0.113015     0.203272  Biso 1.000000     H
    H   1.0     0.857842     0.113020     0.203271  Biso 1.000000     H
    H   1.0     0.458063     0.344451     0.133685  Biso 1.000000     H
    H   1.0     0.958069     0.344454     0.133685  Biso 1.000000     H
    H   1.0     0.067337     0.458803     0.297245  Biso 1.000000     H
    H   1.0     0.567342     0.458804     0.297244  Biso 1.000000     H
    H   1.0     0.261402     0.717186     0.291871  Biso 1.000000     H
    H   1.0     0.761405     0.717192     0.291868  Biso 1.000000     H
    H   1.0     0.211352     0.653141     0.207414  Biso 1.000000     H
    H   1.0     0.711357     0.653141     0.207413  Biso 1.000000     H
    H   1.0     0.076047     0.429906     0.127495  Biso 1.000000     H
    H   1.0     0.576051     0.429905     0.127495  Biso 1.000000     H
    H   1.0     0.278791     0.661791     0.123554  Biso 1.000000     H
    H   1.0     0.778798     0.661784     0.123553  Biso 1.000000     H
    H   1.0     0.341454     0.685752     0.031897  Biso 1.000000     H
    H   1.0     0.841459     0.685750     0.031896  Biso 1.000000     H
    H   1.0     0.291383     0.655820     0.974652  Biso 1.000000     H
    H   1.0     0.791387     0.655819     0.974650  Biso 1.000000     H
    H   1.0     0.293775     0.697033     0.436019  Biso 1.000000     H
    H   1.0     0.793782     0.697037     0.436015  Biso 1.000000     H
    H   1.0     0.318461     0.775859     0.380988  Biso 1.000000     H
    H   1.0     0.818465     0.775866     0.380985  Biso 1.000000     H
    H   1.0     0.431675     0.767311     0.677010  Biso 1.000000     H
    H   1.0     0.931681     0.767313     0.677009  Biso 1.000000     H
    H   1.0     0.392193     0.886992     0.703264  Biso 1.000000     H
    H   1.0     0.892201     0.886993     0.703265  Biso 1.000000     H
    H   1.0     0.291949     0.655561     0.633675  Biso 1.000000     H
    H   1.0     0.791958     0.655562     0.633674  Biso 1.000000     H
    H   1.0     0.182675     0.541241     0.797235  Biso 1.000000     H
    H   1.0     0.682681     0.541242     0.797232  Biso 1.000000     H
    H   1.0    -0.011392     0.282859     0.791860  Biso 1.000000     H
    H   1.0     0.488615     0.282858     0.791857  Biso 1.000000     H
    H   1.0     0.038653     0.346898     0.707402  Biso 1.000000     H
    H   1.0     0.538660     0.346899     0.707399  Biso 1.000000     H
    H   1.0     0.173955     0.570126     0.627487  Biso 1.000000     H
    H   1.0     0.673961     0.570129     0.627484  Biso 1.000000     H
    H   1.0    -0.028806     0.338281     0.623542  Biso 1.000000     H
    H   1.0     0.471196     0.338297     0.623539  Biso 1.000000     H
    H   1.0     0.408551     0.314267     0.531883  Biso 1.000000     H
    H   1.0     0.908556     0.314264     0.531886  Biso 1.000000     H
    H   1.0     0.458625     0.344200     0.474652  Biso 1.000000     H
    H   1.0     0.958630     0.344201     0.474655  Biso 1.000000     H
    H   1.0     0.456257     0.303018     0.936004  Biso 1.000000     H
    H   1.0     0.956263     0.303018     0.936008  Biso 1.000000     H
    H   1.0     0.431569     0.224180     0.880974  Biso 1.000000     H
    H   1.0     0.931573     0.224184     0.880978  Biso 1.000000     H
    C   1.0     0.122817     0.866427     0.879019  Biso 1.000000     C
    C   1.0     0.622822     0.866424     0.879019  Biso 1.000000     C
    C   1.0     0.132734     0.819267     0.824203  Biso 1.000000     C
    C   1.0     0.632738     0.819266     0.824202  Biso 1.000000     C
    C   1.0    -0.009677     0.646140     0.785676  Biso 1.000000     C
    C   1.0     0.490328     0.646136     0.785675  Biso 1.000000     C
    C   1.0     0.034730     0.680769     0.825635  Biso 1.000000     C
    C   1.0     0.534736     0.680766     0.825635  Biso 1.000000     C
    C   1.0     0.435424     0.564218     0.787283  Biso 1.000000     C
    C   1.0     0.935430     0.564222     0.787284  Biso 1.000000     C
    C   1.0     0.410676     0.516916     0.740549  Biso 1.000000     C
    C   1.0     0.910682     0.516920     0.740549  Biso 1.000000     C
    C   1.0     0.357399     0.439017     0.741973  Biso 1.000000     C
    C   1.0     0.857406     0.439020     0.741973  Biso 1.000000     C
    C   1.0     0.330468     0.393995     0.692369  Biso 1.000000     C
    C   1.0     0.830476     0.393999     0.692369  Biso 1.000000     C
    C   1.0     0.275843     0.322940     0.682588  Biso 1.000000     C
    C   1.0     0.775850     0.322943     0.682588  Biso 1.000000     C
    C   1.0     0.329819     0.407562     0.790973  Biso 1.000000     C
    C   1.0     0.829826     0.407566     0.790972  Biso 1.000000     C
    C   1.0     0.353957     0.454542     0.838075  Biso 1.000000     C
    C   1.0     0.853963     0.454545     0.838074  Biso 1.000000     C
    C   1.0     0.406513     0.532947     0.835791  Biso 1.000000     C
    C   1.0     0.906519     0.532950     0.835791  Biso 1.000000     C
    C   1.0     0.324629     0.423586     0.889276  Biso 1.000000     C
    C   1.0     0.824634     0.423588     0.889275  Biso 1.000000     C
    C   1.0     0.263809     0.367583     0.900686  Biso 1.000000     C
    C   1.0     0.763815     0.367581     0.900685  Biso 1.000000     C
    C   1.0     0.231712     0.183688     0.993331  Biso 1.000000     C
    C   1.0     0.731717     0.183687     0.993331  Biso 1.000000     C
    C   1.0     0.211303     0.305085     0.986195  Biso 1.000000     C
    C   1.0     0.711308     0.305084     0.986193  Biso 1.000000     C
    C   1.0     0.265587     0.149775     0.572150  Biso 1.000000     C
    C   1.0     0.765594     0.149777     0.572150  Biso 1.000000     C
    C   1.0     0.227313     0.250129     0.595889  Biso 1.000000     C
    C   1.0     0.727321     0.250132     0.595888  Biso 1.000000     C
    C   1.0     0.127186     0.133594     0.379027  Biso 1.000000     C
    C   1.0     0.627191     0.133595     0.379027  Biso 1.000000     C
    C   1.0     0.117263     0.180753     0.324213  Biso 1.000000     C
    C   1.0     0.617268     0.180754     0.324213  Biso 1.000000     C
    C   1.0     0.259672     0.353871     0.285681  Biso 1.000000     C
    C   1.0     0.759676     0.353874     0.285682  Biso 1.000000     C
    C   1.0     0.215266     0.319252     0.325642  Biso 1.000000     C
    C   1.0     0.715270     0.319254     0.325642  Biso 1.000000     C
    C   1.0     0.314577     0.435790     0.287288  Biso 1.000000     C
    C   1.0     0.814581     0.435792     0.287290  Biso 1.000000     C
    C   1.0     0.339321     0.483089     0.240554  Biso 1.000000     C
    C   1.0     0.839327     0.483091     0.240556  Biso 1.000000     C
    C   1.0     0.392596     0.560990     0.241979  Biso 1.000000     C
    C   1.0     0.892602     0.560991     0.241982  Biso 1.000000     C
    C   1.0     0.419522     0.606012     0.192376  Biso 1.000000     C
    C   1.0     0.919528     0.606013     0.192378  Biso 1.000000     C
    C   1.0     0.474146     0.677068     0.182595  Biso 1.000000     C
    C   1.0     0.974153     0.677068     0.182597  Biso 1.000000     C
    C   1.0     0.420180     0.592447     0.290979  Biso 1.000000     C
    C   1.0     0.920186     0.592448     0.290982  Biso 1.000000     C
    C   1.0     0.396047     0.545469     0.338080  Biso 1.000000     C
    C   1.0     0.896051     0.545470     0.338083  Biso 1.000000     C
    C   1.0     0.343490     0.467065     0.335796  Biso 1.000000     C
    C   1.0     0.843494     0.467067     0.335798  Biso 1.000000     C
    C   1.0     0.425380     0.576429     0.389282  Biso 1.000000     C
    C   1.0     0.925383     0.576430     0.389284  Biso 1.000000     C
    C   1.0     0.486206     0.632420     0.400691  Biso 1.000000     C
    C   1.0     0.986212     0.632413     0.400695  Biso 1.000000     C
    C   1.0     0.518304     0.816337     0.493338  Biso 1.000000     C
    C   1.0     0.000000     0.816336     0.493339  Biso 1.000000     C
    C   1.0     0.038703     0.694935     0.486204  Biso 1.000000     C
    C   1.0     0.538712     0.694937     0.486200  Biso 1.000000     C
    C   1.0     0.484414     0.850230     0.072157  Biso 1.000000     C
    C   1.0     0.984421     0.850229     0.072157  Biso 1.000000     C
    C   1.0     0.022668     0.749868     0.095897  Biso 1.000000     C
    C   1.0     0.522674     0.749868     0.095895  Biso 1.000000     C
    C   1.0     0.377192     0.133596     0.120966  Biso 1.000000     C
    C   1.0     0.877197     0.133597     0.120966  Biso 1.000000     C
    C   1.0     0.367275     0.180749     0.175784  Biso 1.000000     C
    C   1.0     0.867280     0.180752     0.175784  Biso 1.000000     C
    C   1.0     0.509681     0.353886     0.214311  Biso 1.000000     C
    C   1.0     0.000000     0.353887     0.214311  Biso 1.000000     C
    C   1.0     0.465275     0.319254     0.174351  Biso 1.000000     C
    C   1.0     0.965280     0.319256     0.174351  Biso 1.000000     C
    C   1.0     0.064579     0.435806     0.212702  Biso 1.000000     C
    C   1.0     0.564584     0.435806     0.212702  Biso 1.000000     C
    C   1.0     0.089328     0.483108     0.259437  Biso 1.000000     C
    C   1.0     0.589333     0.483109     0.259437  Biso 1.000000     C
    C   1.0     0.142603     0.561008     0.258012  Biso 1.000000     C
    C   1.0     0.642608     0.561009     0.258011  Biso 1.000000     C
    C   1.0     0.169535     0.606028     0.307616  Biso 1.000000     C
    C   1.0     0.669540     0.606030     0.307615  Biso 1.000000     C
    C   1.0     0.224161     0.677083     0.317397  Biso 1.000000     C
    C   1.0     0.724165     0.677087     0.317395  Biso 1.000000     C
    C   1.0     0.170183     0.592462     0.209013  Biso 1.000000     C
    C   1.0     0.670188     0.592463     0.209011  Biso 1.000000     C
    C   1.0     0.146045     0.545482     0.161911  Biso 1.000000     C
    C   1.0     0.646050     0.545482     0.161910  Biso 1.000000     C
    C   1.0     0.093490     0.467077     0.164195  Biso 1.000000     C
    C   1.0     0.593495     0.467077     0.164194  Biso 1.000000     C
    C   1.0     0.175374     0.576438     0.110710  Biso 1.000000     C
    C   1.0     0.675379     0.576438     0.110709  Biso 1.000000     C
    C   1.0     0.236194     0.632443     0.099300  Biso 1.000000     C
    C   1.0     0.736199     0.632440     0.099298  Biso 1.000000     C
    C   1.0     0.268297     0.816332     0.006654  Biso 1.000000     C
    C   1.0     0.768302     0.816332     0.006654  Biso 1.000000     C
    C   1.0     0.288703     0.694934     0.013791  Biso 1.000000     C
    C   1.0     0.788708     0.694933     0.013790  Biso 1.000000     C
    C   1.0     0.234422     0.850244     0.427835  Biso 1.000000     C
    C   1.0     0.734427     0.850248     0.427834  Biso 1.000000     C
    C   1.0     0.272693     0.749889     0.404097  Biso 1.000000     C
    C   1.0     0.772698     0.749894     0.404094  Biso 1.000000     C
    C   1.0     0.372822     0.866426     0.620958  Biso 1.000000     C
    C   1.0     0.872828     0.866430     0.620958  Biso 1.000000     C
    C   1.0     0.382744     0.819266     0.675772  Biso 1.000000     C
    C   1.0     0.882750     0.819268     0.675772  Biso 1.000000     C
    C   1.0     0.240332     0.646150     0.714302  Biso 1.000000     C
    C   1.0     0.740338     0.646153     0.714299  Biso 1.000000     C
    C   1.0     0.284739     0.680770     0.674341  Biso 1.000000     C
    C   1.0     0.784746     0.680772     0.674340  Biso 1.000000     C
    C   1.0     0.185426     0.564233     0.712694  Biso 1.000000     C
    C   1.0     0.685432     0.564235     0.712691  Biso 1.000000     C
    C   1.0     0.160681     0.516934     0.759428  Biso 1.000000     C
    C   1.0     0.660687     0.516935     0.759425  Biso 1.000000     C
    C   1.0     0.107405     0.439034     0.758002  Biso 1.000000     C
    C   1.0     0.607412     0.439035     0.757999  Biso 1.000000     C
    C   1.0     0.080479     0.394010     0.807605  Biso 1.000000     C
    C   1.0     0.580487     0.394009     0.807602  Biso 1.000000     C
    C   1.0     0.025855     0.322955     0.817387  Biso 1.000000     C
    C   1.0     0.525862     0.322954     0.817383  Biso 1.000000     C
    C   1.0     0.079821     0.407578     0.709002  Biso 1.000000     C
    C   1.0     0.579828     0.407579     0.708999  Biso 1.000000     C
    C   1.0     0.103956     0.454555     0.661901  Biso 1.000000     C
    C   1.0     0.603962     0.454557     0.661898  Biso 1.000000     C
    C   1.0     0.156513     0.532959     0.664186  Biso 1.000000     C
    C   1.0     0.656519     0.532961     0.664183  Biso 1.000000     C
    C   1.0     0.074624     0.423596     0.610699  Biso 1.000000     C
    C   1.0     0.574631     0.423597     0.610696  Biso 1.000000     C
    C   1.0     0.013798     0.367605     0.599289  Biso 1.000000     C
    C   1.0     0.513803     0.367612     0.599286  Biso 1.000000     C
    C   1.0    -0.018294     0.183683     0.506646  Biso 1.000000     C
    C   1.0     0.481711     0.183683     0.506645  Biso 1.000000     C
    C   1.0     0.461302     0.305083     0.513777  Biso 1.000000     C
    C   1.0     0.961308     0.305083     0.513780  Biso 1.000000     C
    C   1.0     0.015593     0.149793     0.927828  Biso 1.000000     C
    C   1.0     0.515600     0.149793     0.927826  Biso 1.000000     C
    C   1.0     0.477338     0.250149     0.904083  Biso 1.000000     C
    C   1.0     0.977342     0.250151     0.904087  Biso 1.000000     C
    N   1.0     0.073806     0.759551     0.803074  Biso 1.000000     N
    N   1.0     0.573811     0.759548     0.803073  Biso 1.000000     N
    N   1.0     0.055745     0.773850     0.751110  Biso 1.000000     N
    N   1.0     0.555749     0.773848     0.751110  Biso 1.000000     N
    N   1.0     0.005416     0.704511     0.740900  Biso 1.000000     N
    N   1.0     0.505421     0.704509     0.740900  Biso 1.000000     N
    N   1.0     0.357635     0.424242     0.644285  Biso 1.000000     N
    N   1.0     0.857643     0.424245     0.644284  Biso 1.000000     N
    N   1.0     0.323109     0.376325     0.605902  Biso 1.000000     N
    N   1.0     0.823117     0.376328     0.605901  Biso 1.000000     N
    N   1.0     0.272836     0.314439     0.629104  Biso 1.000000     N
    N   1.0     0.772844     0.314442     0.629103  Biso 1.000000     N
    N   1.0     0.261773     0.362314     0.954164  Biso 1.000000     N
    N   1.0     0.761778     0.362313     0.954163  Biso 1.000000     N
    N   1.0     0.318758     0.411246     0.976031  Biso 1.000000     N
    N   1.0     0.818762     0.411250     0.976031  Biso 1.000000     N
    N   1.0     0.356584     0.449000     0.936492  Biso 1.000000     N
    N   1.0     0.856587     0.449006     0.936492  Biso 1.000000     N
    N   1.0     0.176190     0.240464     0.303082  Biso 1.000000     N
    N   1.0     0.676194     0.240466     0.303082  Biso 1.000000     N
    N   1.0     0.194249     0.226153     0.251118  Biso 1.000000     N
    N   1.0     0.694255     0.226154     0.251118  Biso 1.000000     N
    N   1.0     0.244577     0.295489     0.240906  Biso 1.000000     N
    N   1.0     0.744583     0.295491     0.240907  Biso 1.000000     N
    N   1.0     0.392349     0.575768     0.144291  Biso 1.000000     N
    N   1.0     0.892354     0.575771     0.144294  Biso 1.000000     N
    N   1.0     0.426870     0.623686     0.105909  Biso 1.000000     N
    N   1.0     0.926874     0.623688     0.105911  Biso 1.000000     N
    N   1.0     0.477145     0.685574     0.129111  Biso 1.000000     N
    N   1.0     0.977151     0.685574     0.129113  Biso 1.000000     N
    N   1.0     0.488240     0.637704     0.454170  Biso 1.000000     N
    N   1.0     0.988243     0.637702     0.454173  Biso 1.000000     N
    N   1.0     0.431249     0.588793     0.476037  Biso 1.000000     N
    N   1.0     0.931248     0.588802     0.476040  Biso 1.000000     N
    N   1.0     0.393421     0.551035     0.436498  Biso 1.000000     N
    N   1.0     0.893420     0.551045     0.436500  Biso 1.000000     N
    N   1.0     0.426201     0.240470     0.196913  Biso 1.000000     N
    N   1.0     0.926206     0.240473     0.196913  Biso 1.000000     N
    N   1.0     0.444261     0.226175     0.248877  Biso 1.000000     N
    N   1.0     0.944267     0.226176     0.248877  Biso 1.000000     N
    N   1.0     0.494588     0.295516     0.259087  Biso 1.000000     N
    N   1.0     0.994594     0.295516     0.259087  Biso 1.000000     N
    N   1.0     0.142370     0.575779     0.355701  Biso 1.000000     N
    N   1.0     0.642376     0.575781     0.355700  Biso 1.000000     N
    N   1.0     0.176897     0.623693     0.394084  Biso 1.000000     N
    N   1.0     0.676903     0.623696     0.394083  Biso 1.000000     N
    N   1.0     0.227169     0.685581     0.370882  Biso 1.000000     N
    N   1.0     0.727174     0.685586     0.370880  Biso 1.000000     N
    N   1.0     0.238231     0.637709     0.045821  Biso 1.000000     N
    N   1.0     0.738236     0.637708     0.045820  Biso 1.000000     N
    N   1.0     0.181247     0.588773     0.023954  Biso 1.000000     N
    N   1.0     0.681250     0.588777     0.023953  Biso 1.000000     N
    N   1.0     0.143421     0.551020     0.063493  Biso 1.000000     N
    N   1.0     0.643424     0.551023     0.063492  Biso 1.000000     N
    N   1.0     0.323815     0.759556     0.696902  Biso 1.000000     N
    N   1.0     0.823822     0.759558     0.696901  Biso 1.000000     N
    N   1.0     0.305755     0.773865     0.748867  Biso 1.000000     N
    N   1.0     0.805760     0.773869     0.748865  Biso 1.000000     N
    N   1.0     0.255427     0.704530     0.759078  Biso 1.000000     N
    N   1.0     0.755431     0.704534     0.759075  Biso 1.000000     N
    N   1.0     0.107654     0.424252     0.855690  Biso 1.000000     N
    N   1.0     0.607662     0.424249     0.855687  Biso 1.000000     N
    N   1.0     0.073135     0.376333     0.894072  Biso 1.000000     N
    N   1.0     0.573143     0.376329     0.894069  Biso 1.000000     N
    N   1.0     0.022858     0.314447     0.870871  Biso 1.000000     N
    N   1.0     0.522866     0.314444     0.870868  Biso 1.000000     N
    N   1.0     0.011765     0.362320     0.545810  Biso 1.000000     N
    N   1.0     0.511772     0.362322     0.545807  Biso 1.000000     N
    N   1.0     0.068758     0.411230     0.523944  Biso 1.000000     N
    N   1.0     0.568767     0.411223     0.523941  Biso 1.000000     N
    N   1.0     0.106584     0.448989     0.563484  Biso 1.000000     N
    N   1.0     0.606594     0.448982     0.563480  Biso 1.000000     N
    O   1.0     0.175819     0.916460     0.898047  Biso 1.000000     O
    O   1.0     0.675825     0.916457     0.898047  Biso 1.000000     O
    O   1.0     0.065306     0.857249     0.905130  Biso 1.000000     O
    O   1.0     0.565312     0.857244     0.905131  Biso 1.000000     O
    O   1.0     0.295778     0.152486     0.986060  Biso 1.000000     O
    O   1.0     0.795784     0.152486     0.986060  Biso 1.000000     O
    O   1.0     0.182236     0.120806     0.000000  Biso 1.000000     O
    O   1.0     0.682242     0.120805     0.000000  Biso 1.000000     O
    O   1.0     0.327842     0.124204     0.585598  Biso 1.000000     O
    O   1.0     0.827849     0.124206     0.585598  Biso 1.000000     O
    O   1.0     0.231536     0.093816     0.537284  Biso 1.000000     O
    O   1.0     0.731542     0.093819     0.537284  Biso 1.000000     O
    O   1.0     0.074186     0.083559     0.398054  Biso 1.000000     O
    O   1.0     0.574191     0.083560     0.398055  Biso 1.000000     O
    O   1.0     0.184699     0.142773     0.405136  Biso 1.000000     O
    O   1.0     0.684704     0.142776     0.405137  Biso 1.000000     O
    O   1.0     0.454237     0.847539     0.486066  Biso 1.000000     O
    O   1.0     0.954243     0.847539     0.486066  Biso 1.000000     O
    O   1.0     0.067774     0.879219     0.506868  Biso 1.000000     O
    O   1.0     0.567780     0.879220     0.506868  Biso 1.000000     O
    O   1.0     0.422162     0.875821     0.085604  Biso 1.000000     O
    O   1.0     0.922168     0.875821     0.085605  Biso 1.000000     O
    O   1.0     0.018469     0.906171     0.037292  Biso 1.000000     O
    O   1.0     0.518474     0.906173     0.037292  Biso 1.000000     O
    O   1.0     0.324190     0.083561     0.101938  Biso 1.000000     O
    O   1.0     0.824196     0.083562     0.101938  Biso 1.000000     O
    O   1.0     0.434702     0.142779     0.094854  Biso 1.000000     O
    O   1.0     0.934707     0.142780     0.094854  Biso 1.000000     O
    O   1.0     0.204230     0.847536     0.013925  Biso 1.000000     O
    O   1.0     0.704236     0.847536     0.013925  Biso 1.000000     O
    O   1.0     0.317773     0.879213    -0.006875  Biso 1.000000     O
    O   1.0     0.817779     0.879212    -0.006875  Biso 1.000000     O
    O   1.0     0.172167     0.875817     0.414387  Biso 1.000000     O
    O   1.0     0.672171     0.875819     0.414387  Biso 1.000000     O
    O   1.0     0.268473     0.906203     0.462701  Biso 1.000000     O
    O   1.0     0.768479     0.906205     0.462700  Biso 1.000000     O
    O   1.0     0.425823     0.916458     0.601931  Biso 1.000000     O
    O   1.0     0.925830     0.916461     0.601931  Biso 1.000000     O
    O   1.0     0.315310     0.857247     0.594849  Biso 1.000000     O
    O   1.0     0.815315     0.857254     0.594849  Biso 1.000000     O
    O   1.0     0.045772     0.152481     0.513919  Biso 1.000000     O
    O   1.0     0.545777     0.152481     0.513919  Biso 1.000000     O
    O   1.0     0.432236     0.120797     0.493117  Biso 1.000000     O
    O   1.0     0.932242     0.120797     0.493117  Biso 1.000000     O
    O   1.0     0.077846     0.124204     0.914381  Biso 1.000000     O
    O   1.0     0.577853     0.124202     0.914380  Biso 1.000000     O
    O   1.0     0.481540     0.093854     0.962693  Biso 1.000000     O
    O   1.0     0.981546     0.093852     0.962694  Biso 1.000000     O
   La   1.0     0.112980     0.970381     0.978640  Biso 1.000000    La
   La   1.0     0.612986     0.970380     0.978640  Biso 1.000000    La
   La   1.0     0.137024     0.029644     0.478644  Biso 1.000000    La
   La   1.0     0.637030     0.029646     0.478645  Biso 1.000000    La
   La   1.0     0.387029     0.029642     0.021345  Biso 1.000000    La
   La   1.0     0.887034     0.029641     0.021345  Biso 1.000000    La
   La   1.0     0.362984     0.970374     0.521341  Biso 1.000000    La
   La   1.0     0.862990     0.970376     0.521341  Biso 1.000000    La
