#======================================================================

# CRYSTAL DATA

#----------------------------------------------------------------------

data_VESTA_phase_1


_pd_phase_name                         MOF
_cell_length_a                         15.31600
_cell_length_b                         19.21000
_cell_length_c                         19.48500
_cell_angle_alpha                      89.96400
_cell_angle_beta                       90.00000
_cell_angle_gamma                      90.06900
_symmetry_space_group_name_H-M         "P 1"
_symmetry_Int_Tables_number            1

loop_
_symmetry_equiv_pos_as_xyz
   "x, y, z"

loop_
   _atom_site_label
   _atom_site_occupancy
   _atom_site_fract_x
   _atom_site_fract_y
   _atom_site_fract_z
   _atom_site_adp_type
   _atom_site_B_iso_or_equiv
   _atom_site_type_symbol
    H   1.0     0.306294     0.728644     0.479804  Biso 1.000000     H
    H   1.0     0.806309     0.728644     0.479802  Biso 1.000000     H
    H   1.0     0.424261     0.643362     0.457179  Biso 1.000000     H
    H   1.0     0.924277     0.643362     0.457177  Biso 1.000000     H
    H   1.0     0.114888     0.808736     0.477486  Biso 1.000000     H
    H   1.0     0.614903     0.808736     0.477483  Biso 1.000000     H
    H   1.0     0.494612     0.893894     0.491406  Biso 1.000000     H
    H   1.0     0.994626     0.893894     0.491409  Biso 1.000000     H
    H   1.0     0.000228     0.558805     0.526182  Biso 1.000000     H
    H   1.0     0.500245     0.558805     0.526183  Biso 1.000000     H
    H   1.0     0.036386     0.625944     0.582642  Biso 1.000000     H
    H   1.0     0.536401     0.625945     0.582642  Biso 1.000000     H
    H   1.0     0.096511     0.546400     0.576619  Biso 1.000000     H
    H   1.0     0.596528     0.546402     0.576620  Biso 1.000000     H
    H   1.0     0.201050     0.784662     0.383876  Biso 1.000000     H
    H   1.0     0.701064     0.784661     0.383872  Biso 1.000000     H
    H   1.0     0.114004     0.749753     0.334384  Biso 1.000000     H
    H   1.0     0.614017     0.749751     0.334382  Biso 1.000000     H
    H   1.0     0.223648     0.720563     0.320165  Biso 1.000000     H
    H   1.0     0.723660     0.720560     0.320162  Biso 1.000000     H
    H   1.0     0.151407     0.523368     0.761730  Biso 1.000000     H
    H   1.0     0.651422     0.523366     0.761729  Biso 1.000000     H
    H   1.0     0.032329     0.528741     0.675222  Biso 1.000000     H
    H   1.0     0.532344     0.528740     0.675222  Biso 1.000000     H
    H   1.0     0.341325     0.511889     0.837539  Biso 1.000000     H
    H   1.0     0.841340     0.511891     0.837539  Biso 1.000000     H
    H   1.0     0.460489     0.509278     0.922992  Biso 1.000000     H
    H   1.0     0.960504     0.509281     0.922992  Biso 1.000000     H
    H   1.0     0.364020     0.396241     0.584963  Biso 1.000000     H
    H   1.0     0.864037     0.396242     0.584963  Biso 1.000000     H
    H   1.0     0.413102     0.393780     0.668520  Biso 1.000000     H
    H   1.0     0.913119     0.393782     0.668520  Biso 1.000000     H
    H   1.0     0.465626     0.438437     0.600379  Biso 1.000000     H
    H   1.0     0.965642     0.438439     0.600379  Biso 1.000000     H
    H   1.0     0.246478     0.676080     0.729000  Biso 1.000000     H
    H   1.0     0.746493     0.676081     0.729000  Biso 1.000000     H
    H   1.0     0.351990     0.659104     0.764671  Biso 1.000000     H
    H   1.0     0.852005     0.659105     0.764672  Biso 1.000000     H
    H   1.0     0.259410     0.613669     0.796610  Biso 1.000000     H
    H   1.0     0.759424     0.613670     0.796610  Biso 1.000000     H
    H   1.0     0.192463     0.273342     0.980071  Biso 1.000000     H
    H   1.0     0.692479     0.273341     0.980066  Biso 1.000000     H
    H   1.0     0.074357     0.358429     0.957173  Biso 1.000000     H
    H   1.0     0.574372     0.358428     0.957170  Biso 1.000000     H
    H   1.0     0.384101     0.192724     0.977188  Biso 1.000000     H
    H   1.0     0.884116     0.192724     0.977186  Biso 1.000000     H
    H   1.0     0.004545     0.107737     0.991175  Biso 1.000000     H
    H   1.0     0.504561     0.107736     0.991175  Biso 1.000000     H
    H   1.0     0.498866     0.443090     0.026034  Biso 1.000000     H
    H   1.0     0.998879     0.443091     0.026036  Biso 1.000000     H
    H   1.0     0.463638     0.375250     0.082099  Biso 1.000000     H
    H   1.0     0.963654     0.375249     0.082099  Biso 1.000000     H
    H   1.0     0.402900     0.454559     0.077058  Biso 1.000000     H
    H   1.0     0.902913     0.454557     0.077060  Biso 1.000000     H
    H   1.0     0.297049     0.217176     0.884463  Biso 1.000000     H
    H   1.0     0.797066     0.217178     0.884460  Biso 1.000000     H
    H   1.0     0.383735     0.251951     0.834453  Biso 1.000000     H
    H   1.0     0.883753     0.251953     0.834451  Biso 1.000000     H
    H   1.0     0.274031     0.281284     0.820783  Biso 1.000000     H
    H   1.0     0.774049     0.281286     0.820780  Biso 1.000000     H
    H   1.0     0.348961     0.478485     0.261744  Biso 1.000000     H
    H   1.0     0.848977     0.478484     0.261743  Biso 1.000000     H
    H   1.0     0.468123     0.473050     0.175305  Biso 1.000000     H
    H   1.0     0.968140     0.473049     0.175305  Biso 1.000000     H
    H   1.0     0.158979     0.490011     0.337699  Biso 1.000000     H
    H   1.0     0.658994     0.490010     0.337699  Biso 1.000000     H
    H   1.0     0.039713     0.492718     0.423086  Biso 1.000000     H
    H   1.0     0.539728     0.492717     0.423086  Biso 1.000000     H
    H   1.0     0.136149     0.606038     0.085271  Biso 1.000000     H
    H   1.0     0.636163     0.606038     0.085271  Biso 1.000000     H
    H   1.0     0.087010     0.608240     0.168806  Biso 1.000000     H
    H   1.0     0.587022     0.608239     0.168806  Biso 1.000000     H
    H   1.0     0.034602     0.563700     0.100584  Biso 1.000000     H
    H   1.0     0.534616     0.563698     0.100583  Biso 1.000000     H
    H   1.0     0.254166     0.326022     0.229035  Biso 1.000000     H
    H   1.0     0.754181     0.326022     0.229035  Biso 1.000000     H
    H   1.0     0.148583     0.342763     0.264655  Biso 1.000000     H
    H   1.0     0.648598     0.342763     0.264656  Biso 1.000000     H
    H   1.0     0.241027     0.388268     0.296691  Biso 1.000000     H
    H   1.0     0.741042     0.388268     0.296690  Biso 1.000000     H
    H   1.0     0.194077     0.228881     0.479599  Biso 1.000000     H
    H   1.0     0.694093     0.228881     0.479597  Biso 1.000000     H
    H   1.0     0.075966     0.143863     0.455675  Biso 1.000000     H
    H   1.0     0.575982     0.143863     0.455674  Biso 1.000000     H
    H   1.0     0.385536     0.308597     0.479115  Biso 1.000000     H
    H   1.0     0.885551     0.308597     0.479113  Biso 1.000000     H
    H   1.0     0.005971     0.393657     0.494250  Biso 1.000000     H
    H   1.0     0.505988     0.393657     0.494251  Biso 1.000000     H
    H   1.0     0.500327     0.058436     0.523555  Biso 1.000000     H
    H   1.0     0.000000     0.058436     0.523555  Biso 1.000000     H
    H   1.0     0.463738     0.124323     0.581204  Biso 1.000000     H
    H   1.0     0.963753     0.124324     0.581204  Biso 1.000000     H
    H   1.0     0.404119     0.044523     0.573657  Biso 1.000000     H
    H   1.0     0.904132     0.044524     0.573658  Biso 1.000000     H
    H   1.0     0.299416     0.286027     0.385085  Biso 1.000000     H
    H   1.0     0.799432     0.286026     0.385082  Biso 1.000000     H
    H   1.0     0.386134     0.251928     0.334813  Biso 1.000000     H
    H   1.0     0.886150     0.251926     0.334811  Biso 1.000000     H
    H   1.0     0.276344     0.222966     0.320439  Biso 1.000000     H
    H   1.0     0.776360     0.222964     0.320437  Biso 1.000000     H
    H   1.0     0.349228     0.023173     0.759204  Biso 1.000000     H
    H   1.0     0.849245     0.023177     0.759204  Biso 1.000000     H
    H   1.0     0.468379     0.028326     0.672759  Biso 1.000000     H
    H   1.0     0.968396     0.028331     0.672759  Biso 1.000000     H
    H   1.0     0.159210     0.000000     0.835226  Biso 1.000000     H
    H   1.0     0.659225     0.000000     0.835226  Biso 1.000000     H
    H   1.0     0.040000     0.000000     0.920613  Biso 1.000000     H
    H   1.0     0.540016     0.000000     0.920613  Biso 1.000000     H
    H   1.0     0.136450     0.895656     0.583099  Biso 1.000000     H
    H   1.0     0.636467     0.895655     0.583098  Biso 1.000000     H
    H   1.0     0.087325     0.893510     0.666649  Biso 1.000000     H
    H   1.0     0.587341     0.893508     0.666648  Biso 1.000000     H
    H   1.0     0.034856     0.937752     0.598277  Biso 1.000000     H
    H   1.0     0.534872     0.937750     0.598275  Biso 1.000000     H
    H   1.0     0.254442     0.176181     0.725983  Biso 1.000000     H
    H   1.0     0.754454     0.176180     0.725983  Biso 1.000000     H
    H   1.0     0.148915     0.159249     0.761733  Biso 1.000000     H
    H   1.0     0.648927     0.159248     0.761733  Biso 1.000000     H
    H   1.0     0.241424     0.113979     0.793799  Biso 1.000000     H
    H   1.0     0.741437     0.113978     0.793799  Biso 1.000000     H
    H   1.0     0.307275     0.772559     0.979442  Biso 1.000000     H
    H   1.0     0.807290     0.772559     0.979444  Biso 1.000000     H
    H   1.0     0.425282     0.857643     0.955448  Biso 1.000000     H
    H   1.0     0.925297     0.857643     0.955449  Biso 1.000000     H
    H   1.0     0.115862     0.692961     0.978763  Biso 1.000000     H
    H   1.0     0.615878     0.692961     0.978761  Biso 1.000000     H
    H   1.0     0.495543     0.607828     0.993846  Biso 1.000000     H
    H   1.0     0.995559     0.607828     0.993848  Biso 1.000000     H
    H   1.0     0.000291     0.943383     0.023165  Biso 1.000000     H
    H   1.0     0.500306     0.943383     0.023164  Biso 1.000000     H
    H   1.0     0.036214     0.877051     0.080639  Biso 1.000000     H
    H   1.0     0.536230     0.877050     0.080638  Biso 1.000000     H
    H   1.0     0.096148     0.956763     0.073809  Biso 1.000000     H
    H   1.0     0.596164     0.956762     0.073808  Biso 1.000000     H
    H   1.0     0.202630     0.715981     0.885467  Biso 1.000000     H
    H   1.0     0.702647     0.715981     0.885466  Biso 1.000000     H
    H   1.0     0.116221     0.749966     0.834754  Biso 1.000000     H
    H   1.0     0.616238     0.749966     0.834753  Biso 1.000000     H
    H   1.0     0.226036     0.779163     0.820937  Biso 1.000000     H
    H   1.0     0.726053     0.779163     0.820936  Biso 1.000000     H
    H   1.0     0.150489     0.978786     0.259162  Biso 1.000000     H
    H   1.0     0.650504     0.978784     0.259161  Biso 1.000000     H
    H   1.0     0.031210     0.973485     0.172816  Biso 1.000000     H
    H   1.0     0.531225     0.973482     0.172816  Biso 1.000000     H
    H   1.0     0.340600    -0.010124     0.335387  Biso 1.000000     H
    H   1.0     0.840616    -0.010125     0.335387  Biso 1.000000     H
    H   1.0     0.459944    -0.007482     0.420682  Biso 1.000000     H
    H   1.0     0.959959    -0.007485     0.420682  Biso 1.000000     H
    H   1.0     0.363244     0.106723     0.083486  Biso 1.000000     H
    H   1.0     0.863259     0.106723     0.083486  Biso 1.000000     H
    H   1.0     0.412611     0.108506     0.166951  Biso 1.000000     H
    H   1.0     0.912624     0.108507     0.166952  Biso 1.000000     H
    H   1.0     0.464833     0.064487     0.098371  Biso 1.000000     H
    H   1.0     0.964849     0.064488     0.098373  Biso 1.000000     H
    H   1.0     0.244981     0.826001     0.226186  Biso 1.000000     H
    H   1.0     0.744999     0.826000     0.226185  Biso 1.000000     H
    H   1.0     0.350584     0.842722     0.261871  Biso 1.000000     H
    H   1.0     0.850601     0.842722     0.261870  Biso 1.000000     H
    H   1.0     0.258228     0.888135     0.293959  Biso 1.000000     H
    H   1.0     0.758245     0.888134     0.293958  Biso 1.000000     H
    C   1.0     0.319406     0.868208     0.497935  Biso 1.000000     C
    C   1.0     0.819421     0.868208     0.497933  Biso 1.000000     C
    C   1.0     0.392463     0.816823     0.487085  Biso 1.000000     C
    C   1.0     0.892478     0.816823     0.487085  Biso 1.000000     C
    C   1.0     0.373824     0.745969     0.478137  Biso 1.000000     C
    C   1.0     0.873839     0.745969     0.478136  Biso 1.000000     C
    C   1.0     0.440286     0.697889     0.466300  Biso 1.000000     C
    C   1.0     0.940302     0.697889     0.466299  Biso 1.000000     C
    C   1.0     0.026912     0.721100     0.465933  Biso 1.000000     C
    C   1.0     0.526927     0.721100     0.465932  Biso 1.000000     C
    C   1.0     0.047154     0.791399     0.475919  Biso 1.000000     C
    C   1.0     0.547169     0.791399     0.475916  Biso 1.000000     C
    C   1.0     0.479655     0.838925     0.485153  Biso 1.000000     C
    C   1.0     0.979670     0.838924     0.485154  Biso 1.000000     C
    C   1.0     0.058283     0.584600     0.547769  Biso 1.000000     C
    C   1.0     0.558299     0.584601     0.547769  Biso 1.000000     C
    C   1.0     0.114225     0.613599     0.492802  Biso 1.000000     C
    C   1.0     0.614240     0.613599     0.492802  Biso 1.000000     C
    C   1.0     0.166309     0.679835     0.409654  Biso 1.000000     C
    C   1.0     0.666323     0.679834     0.409652  Biso 1.000000     C
    C   1.0     0.176426     0.737081     0.359118  Biso 1.000000     C
    C   1.0     0.676439     0.737079     0.359115  Biso 1.000000     C
    C   1.0     0.138566     0.517009     0.898230  Biso 1.000000     C
    C   1.0     0.638581     0.517010     0.898229  Biso 1.000000     C
    C   1.0     0.064193     0.515868     0.847988  Biso 1.000000     C
    C   1.0     0.564208     0.515867     0.847988  Biso 1.000000     C
    C   1.0     0.083485     0.520606     0.777773  Biso 1.000000     C
    C   1.0     0.583500     0.520605     0.777773  Biso 1.000000     C
    C   1.0     0.016953     0.523177     0.729409  Biso 1.000000     C
    C   1.0     0.516968     0.523175     0.729409  Biso 1.000000     C
    C   1.0     0.429951     0.520488     0.751086  Biso 1.000000     C
    C   1.0     0.929966     0.520490     0.751086  Biso 1.000000     C
    C   1.0     0.409114     0.514137     0.820621  Biso 1.000000     C
    C   1.0     0.909130     0.514139     0.820621  Biso 1.000000     C
    C   1.0     0.476713     0.512081     0.868716  Biso 1.000000     C
    C   1.0     0.976729     0.512082     0.868716  Biso 1.000000     C
    C   1.0     0.401690     0.426045     0.622864  Biso 1.000000     C
    C   1.0     0.901707     0.426046     0.622864  Biso 1.000000     C
    C   1.0     0.352554     0.489754     0.641164  Biso 1.000000     C
    C   1.0     0.852570     0.489755     0.641164  Biso 1.000000     C
    C   1.0     0.301383     0.581398     0.696754  Biso 1.000000     C
    C   1.0     0.801398     0.581399     0.696753  Biso 1.000000     C
    C   1.0     0.289243     0.635639     0.749954  Biso 1.000000     C
    C   1.0     0.789258     0.635640     0.749953  Biso 1.000000     C
    C   1.0     0.179704     0.133846    -0.001804  Biso 1.000000     C
    C   1.0     0.679719     0.133845    -0.001807  Biso 1.000000     C
    C   1.0     0.106502     0.185014     0.987143  Biso 1.000000     C
    C   1.0     0.606518     0.185014     0.987142  Biso 1.000000     C
    C   1.0     0.124990     0.255905     0.978233  Biso 1.000000     C
    C   1.0     0.625006     0.255904     0.978230  Biso 1.000000     C
    C   1.0     0.058442     0.303869     0.966264  Biso 1.000000     C
    C   1.0     0.558458     0.303868     0.966262  Biso 1.000000     C
    C   1.0     0.471870     0.280527     0.965794  Biso 1.000000     C
    C   1.0     0.971885     0.280527     0.965794  Biso 1.000000     C
    C   1.0     0.451789     0.210172     0.975668  Biso 1.000000     C
    C   1.0     0.951805     0.210172     0.975667  Biso 1.000000     C
    C   1.0     0.019392     0.162742     0.984981  Biso 1.000000     C
    C   1.0     0.519408     0.162741     0.984981  Biso 1.000000     C
    C   1.0     0.441160     0.416833     0.047686  Biso 1.000000     C
    C   1.0     0.941174     0.416833     0.047687  Biso 1.000000     C
    C   1.0     0.384947     0.388081     0.992818  Biso 1.000000     C
    C   1.0     0.884962     0.388081     0.992817  Biso 1.000000     C
    C   1.0     0.332209     0.321967     0.909904  Biso 1.000000     C
    C   1.0     0.832226     0.321968     0.909902  Biso 1.000000     C
    C   1.0     0.321560     0.264719     0.859505  Biso 1.000000     C
    C   1.0     0.821577     0.264721     0.859503  Biso 1.000000     C
    C   1.0     0.361656     0.485133     0.398207  Biso 1.000000     C
    C   1.0     0.861672     0.485133     0.398207  Biso 1.000000     C
    C   1.0     0.436102     0.486104     0.348031  Biso 1.000000     C
    C   1.0     0.936117     0.486105     0.348031  Biso 1.000000     C
    C   1.0     0.416867     0.481263     0.277818  Biso 1.000000     C
    C   1.0     0.916883     0.481262     0.277817  Biso 1.000000     C
    C   1.0     0.483438     0.478657     0.229496  Biso 1.000000     C
    C   1.0     0.983454     0.478657     0.229496  Biso 1.000000     C
    C   1.0     0.070417     0.481398     0.251221  Biso 1.000000     C
    C   1.0     0.570432     0.481397     0.251221  Biso 1.000000     C
    C   1.0     0.091202     0.487763     0.320754  Biso 1.000000     C
    C   1.0     0.591217     0.487762     0.320754  Biso 1.000000     C
    C   1.0     0.023559     0.489864     0.368805  Biso 1.000000     C
    C   1.0     0.523574     0.489863     0.368805  Biso 1.000000     C
    C   1.0     0.098500     0.576105     0.123114  Biso 1.000000     C
    C   1.0     0.598514     0.576104     0.123114  Biso 1.000000     C
    C   1.0     0.147746     0.512408     0.141344  Biso 1.000000     C
    C   1.0     0.647761     0.512408     0.141344  Biso 1.000000     C
    C   1.0     0.199071     0.420694     0.196839  Biso 1.000000     C
    C   1.0     0.699086     0.420693     0.196839  Biso 1.000000     C
    C   1.0     0.211289     0.366355     0.249997  Biso 1.000000     C
    C   1.0     0.711304     0.366355     0.249997  Biso 1.000000     C
    C   1.0     0.181127     0.368119     0.499929  Biso 1.000000     C
    C   1.0     0.681144     0.368118     0.499929  Biso 1.000000     C
    C   1.0     0.107998     0.316802     0.488469  Biso 1.000000     C
    C   1.0     0.608015     0.316801     0.488469  Biso 1.000000     C
    C   1.0     0.126560     0.246144     0.478312  Biso 1.000000     C
    C   1.0     0.626576     0.246144     0.478311  Biso 1.000000     C
    C   1.0     0.060020     0.198199     0.465751  Biso 1.000000     C
    C   1.0     0.560036     0.198199     0.465751  Biso 1.000000     C
    C   1.0     0.473420     0.221301     0.465915  Biso 1.000000     C
    C   1.0     0.973435     0.221301     0.465914  Biso 1.000000     C
    C   1.0     0.453251     0.291377     0.477155  Biso 1.000000     C
    C   1.0     0.953265     0.291376     0.477154  Biso 1.000000     C
    C   1.0     0.020825     0.338818     0.487070  Biso 1.000000     C
    C   1.0     0.520841     0.338818     0.487071  Biso 1.000000     C
    C   1.0     0.442118     0.083515     0.545571  Biso 1.000000     C
    C   1.0     0.942132     0.083516     0.545572  Biso 1.000000     C
    C   1.0     0.386078     0.113268     0.491121  Biso 1.000000     C
    C   1.0     0.886093     0.113268     0.491121  Biso 1.000000     C
    C   1.0     0.333914     0.180784     0.409094  Biso 1.000000     C
    C   1.0     0.833930     0.180783     0.409092  Biso 1.000000     C
    C   1.0     0.323783     0.238852     0.359515  Biso 1.000000     C
    C   1.0     0.823799     0.238850     0.359513  Biso 1.000000     C
    C   1.0     0.361875     0.017245     0.895704  Biso 1.000000     C
    C   1.0     0.861891     0.017245     0.895703  Biso 1.000000     C
    C   1.0     0.436340     0.015977     0.845544  Biso 1.000000     C
    C   1.0     0.936356     0.015978     0.845544  Biso 1.000000     C
    C   1.0     0.417128     0.020495     0.775300  Biso 1.000000     C
    C   1.0     0.917145     0.020498     0.775300  Biso 1.000000     C
    C   1.0     0.483707     0.022963     0.726968  Biso 1.000000     C
    C   1.0     0.983724     0.022967     0.726969  Biso 1.000000     C
    C   1.0     0.070693     0.020446     0.748693  Biso 1.000000     C
    C   1.0     0.570708     0.020444     0.748692  Biso 1.000000     C
    C   1.0     0.091447     0.014352     0.818260  Biso 1.000000     C
    C   1.0     0.591462     0.014351     0.818259  Biso 1.000000     C
    C   1.0     0.023799     0.012351     0.866327  Biso 1.000000     C
    C   1.0     0.523814     0.012350     0.866327  Biso 1.000000     C
    C   1.0     0.098769     0.925573     0.620847  Biso 1.000000     C
    C   1.0     0.598785     0.925572     0.620846  Biso 1.000000     C
    C   1.0     0.147956    -0.010580     0.638850  Biso 1.000000     C
    C   1.0     0.647970    -0.010582     0.638850  Biso 1.000000     C
    C   1.0     0.199310     0.081332     0.694071  Biso 1.000000     C
    C   1.0     0.699323     0.081331     0.694071  Biso 1.000000     C
    C   1.0     0.211611     0.135775     0.747082  Biso 1.000000     C
    C   1.0     0.711623     0.135774     0.747082  Biso 1.000000     C
    C   1.0     0.320313     0.633368    -0.000182  Biso 1.000000     C
    C   1.0     0.820328     0.633368    -0.000182  Biso 1.000000     C
    C   1.0     0.393421     0.684658     0.988229  Biso 1.000000     C
    C   1.0     0.893436     0.684658     0.988230  Biso 1.000000     C
    C   1.0     0.374797     0.755320     0.978081  Biso 1.000000     C
    C   1.0     0.874812     0.755320     0.978082  Biso 1.000000     C
    C   1.0     0.441290     0.803305     0.965504  Biso 1.000000     C
    C   1.0     0.941305     0.803306     0.965505  Biso 1.000000     C
    C   1.0     0.027922     0.780268     0.965664  Biso 1.000000     C
    C   1.0     0.527937     0.780268     0.965663  Biso 1.000000     C
    C   1.0     0.048141     0.710171     0.976817  Biso 1.000000     C
    C   1.0     0.548157     0.710170     0.976815  Biso 1.000000     C
    C   1.0     0.480605     0.662670     0.986720  Biso 1.000000     C
    C   1.0     0.980620     0.662671     0.986721  Biso 1.000000     C
    C   1.0     0.058254     0.918044     0.045323  Biso 1.000000     C
    C   1.0     0.558269     0.918043     0.045322  Biso 1.000000     C
    C   1.0     0.114670     0.888511     0.991043  Biso 1.000000     C
    C   1.0     0.614686     0.888510     0.991042  Biso 1.000000     C
    C   1.0     0.167613     0.821148     0.909276  Biso 1.000000     C
    C   1.0     0.667629     0.821148     0.909276  Biso 1.000000     C
    C   1.0     0.178324     0.763141     0.859774  Biso 1.000000     C
    C   1.0     0.678341     0.763141     0.859773  Biso 1.000000     C
    C   1.0     0.138024     0.985126     0.395632  Biso 1.000000     C
    C   1.0     0.638039     0.985125     0.395632  Biso 1.000000     C
    C   1.0     0.063483     0.986200     0.345541  Biso 1.000000     C
    C   1.0     0.563498     0.986199     0.345541  Biso 1.000000     C
    C   1.0     0.082610     0.981503     0.275300  Biso 1.000000     C
    C   1.0     0.582625     0.981501     0.275299  Biso 1.000000     C
    C   1.0     0.015970     0.978943     0.227030  Biso 1.000000     C
    C   1.0     0.515985     0.978942     0.227030  Biso 1.000000     C
    C   1.0     0.429018     0.981558     0.248820  Biso 1.000000     C
    C   1.0     0.929034     0.981559     0.248820  Biso 1.000000     C
    C   1.0     0.408344     0.987746     0.318384  Biso 1.000000     C
    C   1.0     0.908359     0.987744     0.318384  Biso 1.000000     C
    C   1.0     0.476056     0.989830     0.366389  Biso 1.000000     C
    C   1.0     0.976072     0.989829     0.366389  Biso 1.000000     C
    C   1.0     0.401002     0.076631     0.121087  Biso 1.000000     C
    C   1.0     0.901017     0.076632     0.121088  Biso 1.000000     C
    C   1.0     0.351786     0.000000     0.139019  Biso 1.000000     C
    C   1.0     0.851801     0.000000     0.139019  Biso 1.000000     C
    C   1.0     0.300343     0.920786     0.194200  Biso 1.000000     C
    C   1.0     0.800359     0.920786     0.194200  Biso 1.000000     C
    C   1.0     0.287942     0.866317     0.247239  Biso 1.000000     C
    C   1.0     0.787958     0.866317     0.247238  Biso 1.000000     C
    N   1.0     0.189012     0.587039     0.470513  Biso 1.000000     N
    N   1.0     0.689028     0.587039     0.470512  Biso 1.000000     N
    N   1.0     0.221711     0.628010     0.417943  Biso 1.000000     N
    N   1.0     0.721725     0.628009     0.417942  Biso 1.000000     N
    N   1.0     0.097380     0.672920     0.455580  Biso 1.000000     N
    N   1.0     0.597395     0.672920     0.455579  Biso 1.000000     N
    N   1.0     0.289393     0.518785     0.604363  Biso 1.000000     N
    N   1.0     0.789409     0.518785     0.604363  Biso 1.000000     N
    N   1.0     0.256952     0.576349     0.638927  Biso 1.000000     N
    N   1.0     0.756968     0.576350     0.638926  Biso 1.000000     N
    N   1.0     0.362344     0.527952     0.700439  Biso 1.000000     N
    N   1.0     0.862360     0.527953     0.700439  Biso 1.000000     N
    N   1.0     0.310178     0.414839     0.970702  Biso 1.000000     N
    N   1.0     0.810193     0.414839     0.970701  Biso 1.000000     N
    N   1.0     0.277067     0.373945     0.918285  Biso 1.000000     N
    N   1.0     0.777084     0.373946     0.918284  Biso 1.000000     N
    N   1.0     0.401383     0.328712     0.955614  Biso 1.000000     N
    N   1.0     0.901399     0.328713     0.955614  Biso 1.000000     N
    N   1.0     0.210927     0.483527     0.104495  Biso 1.000000     N
    N   1.0     0.710941     0.483527     0.104494  Biso 1.000000     N
    N   1.0     0.243465     0.425912     0.139001  Biso 1.000000     N
    N   1.0     0.743479     0.425912     0.139001  Biso 1.000000     N
    N   1.0     0.138046     0.474077     0.200590  Biso 1.000000     N
    N   1.0     0.638061     0.474076     0.200589  Biso 1.000000     N
    N   1.0     0.311244     0.086972     0.468470  Biso 1.000000     N
    N   1.0     0.811259     0.086972     0.468469  Biso 1.000000     N
    N   1.0     0.278482     0.128748     0.416598  Biso 1.000000     N
    N   1.0     0.778497     0.128747     0.416597  Biso 1.000000     N
    N   1.0     0.402898     0.173213     0.454837  Biso 1.000000     N
    N   1.0     0.902913     0.173213     0.454836  Biso 1.000000     N
    N   1.0     0.211037     0.018428     0.601854  Biso 1.000000     N
    N   1.0     0.711051     0.018428     0.601854  Biso 1.000000     N
    N   1.0     0.243588     0.076163     0.636193  Biso 1.000000     N
    N   1.0     0.743601     0.076163     0.636192  Biso 1.000000     N
    N   1.0     0.138324     0.027794     0.698023  Biso 1.000000     N
    N   1.0     0.638338     0.027793     0.698022  Biso 1.000000     N
    N   1.0     0.189481     0.915053     0.968597  Biso 1.000000     N
    N   1.0     0.689497     0.915052     0.968597  Biso 1.000000     N
    N   1.0     0.222736     0.873367     0.916900  Biso 1.000000     N
    N   1.0     0.722752     0.873366     0.916899  Biso 1.000000     N
    N   1.0     0.098343     0.828497     0.954780  Biso 1.000000     N
    N   1.0     0.598359     0.828497     0.954779  Biso 1.000000     N
    N   1.0     0.288735     0.983823     0.101977  Biso 1.000000     N
    N   1.0     0.788751     0.983823     0.101977  Biso 1.000000     N
    N   1.0     0.256124     0.926045     0.136293  Biso 1.000000     N
    N   1.0     0.756141     0.926045     0.136292  Biso 1.000000     N
    N   1.0     0.361348     0.974294     0.198186  Biso 1.000000     N
    N   1.0     0.861364     0.974295     0.198186  Biso 1.000000     N
    O   1.0     0.343622     0.932892     0.502671  Biso 1.000000     O
    O   1.0     0.843637     0.932891     0.502671  Biso 1.000000     O
    O   1.0     0.242001     0.847647     0.501427  Biso 1.000000     O
    O   1.0     0.742016     0.847647     0.501424  Biso 1.000000     O
    O   1.0     0.122548     0.499729     0.961418  Biso 1.000000     O
    O   1.0     0.622564     0.499729     0.961418  Biso 1.000000     O
    O   1.0     0.213267     0.534494     0.878059  Biso 1.000000     O
    O   1.0     0.713282     0.534495     0.878058  Biso 1.000000     O
    O   1.0     0.155869     0.069057     0.002624  Biso 1.000000     O
    O   1.0     0.655885     0.069056     0.002623  Biso 1.000000     O
    O   1.0     0.256950     0.154689     0.002142  Biso 1.000000     O
    O   1.0     0.756966     0.154687     0.002137  Biso 1.000000     O
    O   1.0     0.377476     0.502957     0.461267  Biso 1.000000     O
    O   1.0     0.877492     0.502957     0.461267  Biso 1.000000     O
    O   1.0     0.287082     0.467316     0.378080  Biso 1.000000     O
    O   1.0     0.787098     0.467315     0.378079  Biso 1.000000     O
    O   1.0     0.156893     0.432692     0.505493  Biso 1.000000     O
    O   1.0     0.656910     0.432692     0.505493  Biso 1.000000     O
    O   1.0     0.258515     0.347624     0.503070  Biso 1.000000     O
    O   1.0     0.758532     0.347624     0.503070  Biso 1.000000     O
    O   1.0     0.377554     0.999862     0.958901  Biso 1.000000     O
    O   1.0     0.877569     0.999862     0.958901  Biso 1.000000     O
    O   1.0     0.287366     0.034992     0.875437  Biso 1.000000     O
    O   1.0     0.787381     0.034991     0.875437  Biso 1.000000     O
    O   1.0     0.344342     0.568762     0.005363  Biso 1.000000     O
    O   1.0     0.844358     0.568762     0.005363  Biso 1.000000     O
    O   1.0     0.242935     0.653872     0.003107  Biso 1.000000     O
    O   1.0     0.742950     0.653872     0.003109  Biso 1.000000     O
    O   1.0     0.122479     0.002843     0.458744  Biso 1.000000     O
    O   1.0     0.622495     0.002843     0.458744  Biso 1.000000     O
    O   1.0     0.212456     0.967214     0.375382  Biso 1.000000     O
    O   1.0     0.712471     0.967215     0.375381  Biso 1.000000     O
   Zn   1.0     0.255340     0.499876     0.502663  Biso 1.000000    Zn
   Zn   1.0     0.755356     0.499876     0.502663  Biso 1.000000    Zn
   Zn   1.0     0.244752     0.502554     0.000000  Biso 1.000000    Zn
   Zn   1.0     0.744768     0.502554     0.000000  Biso 1.000000    Zn
   Zn   1.0     0.244712    -0.000374     0.499976  Biso 1.000000    Zn
   Zn   1.0     0.744727    -0.000374     0.499976  Biso 1.000000    Zn
   Zn   1.0     0.255279     0.000000     0.000000  Biso 1.000000    Zn
   Zn   1.0     0.755294     0.000000     0.000000  Biso 1.000000    Zn
