#======================================================================

# CRYSTAL DATA

#----------------------------------------------------------------------

data_VESTA_phase_1


_pd_phase_name                         MOF
_cell_length_a                         14.33600
_cell_length_b                         14.61100
_cell_length_c                         14.49200
_cell_angle_alpha                      116.19600
_cell_angle_beta                       114.33200
_cell_angle_gamma                      97.61000
_symmetry_space_group_name_H-M         "P 1"
_symmetry_Int_Tables_number            1

loop_
_symmetry_equiv_pos_as_xyz
   "x, y, z"

loop_
   _atom_site_label
   _atom_site_occupancy
   _atom_site_fract_x
   _atom_site_fract_y
   _atom_site_fract_z
   _atom_site_adp_type
   _atom_site_B_iso_or_equiv
   _atom_site_type_symbol
    H   1.0     0.429780     0.874585     0.816861  Biso 1.000000     H
    H   1.0     0.365941     0.047234     0.073677  Biso 1.000000     H
    H   1.0     0.564781     0.440660     0.242348  Biso 1.000000     H
    H   1.0    -0.016180     0.752380     0.434267  Biso 1.000000     H
    H   1.0     0.940521     0.411422     0.115941  Biso 1.000000     H
    H   1.0     0.185230     0.247377     0.542912  Biso 1.000000     H
    H   1.0     0.570206     0.125455     0.183223  Biso 1.000000     H
    H   1.0     0.059464     0.588616     0.884142  Biso 1.000000     H
    H   1.0     0.813167     0.079193     0.019959  Biso 1.000000     H
    H   1.0     0.067622     0.314432     0.264938  Biso 1.000000     H
    H   1.0     0.635826     0.245796     0.406890  Biso 1.000000     H
    H   1.0     0.298054     0.821479     0.460816  Biso 1.000000     H
    H   1.0     0.435199     0.559377     0.757731  Biso 1.000000     H
    H   1.0     0.186822     0.920846     0.980129  Biso 1.000000     H
    H   1.0     0.634046     0.952803     0.926405  Biso 1.000000     H
    H   1.0     0.932365     0.685608     0.735144  Biso 1.000000     H
    H   1.0     0.701926     0.178561     0.539265  Biso 1.000000     H
    H   1.0     0.863759     0.486998     0.581342  Biso 1.000000     H
    H   1.0     0.949494     0.313188     0.428903  Biso 1.000000     H
    H   1.0     0.739009     0.139063     0.153728  Biso 1.000000     H
    H   1.0     0.260977     0.860977     0.846356  Biso 1.000000     H
    H   1.0     0.050487     0.686848     0.571178  Biso 1.000000     H
    H   1.0     0.258167     0.446478     0.700063  Biso 1.000000     H
    H   1.0     0.814753     0.752663     0.457170  Biso 1.000000     H
    H   1.0     0.136226     0.513041     0.418740  Biso 1.000000     H
    H   1.0     0.000000     0.247655     0.565813  Biso 1.000000     H
    H   1.0     0.870099     0.474539     0.254235  Biso 1.000000     H
    H   1.0     0.359475     0.356183     0.116075  Biso 1.000000     H
    H   1.0     0.129884     0.525500     0.745845  Biso 1.000000     H
    H   1.0     0.364156     0.754246     0.593192  Biso 1.000000     H
    H   1.0     0.640504     0.643850     0.884002  Biso 1.000000     H
    H   1.0     0.741814     0.553562     0.300019  Biso 1.000000     H
    H   1.0     0.710051     0.756785     0.696684  Biso 1.000000     H
    H   1.0     0.736498     0.879766     0.182065  Biso 1.000000     H
    H   1.0     0.234878     0.081566     0.538458  Biso 1.000000     H
    H   1.0     0.789953     0.841235     0.342905  Biso 1.000000     H
    H   1.0     0.568918     0.082508     0.765489  Biso 1.000000     H
    H   1.0     0.320887     0.002368     0.282790  Biso 1.000000     H
    H   1.0     0.606355     0.333770     0.592231  Biso 1.000000     H
    H   1.0     0.339284     0.792359     0.300354  Biso 1.000000     H
    H   1.0     0.264411     0.860471     0.324636  Biso 1.000000     H
    H   1.0     0.210029     0.158800     0.657179  Biso 1.000000     H
    H   1.0     0.372948     0.072427     0.851722  Biso 1.000000     H
    H   1.0     0.464002     0.573468     0.382990  Biso 1.000000     H
    H   1.0     0.591795     0.411329     0.523859  Biso 1.000000     H
    H   1.0     0.408185     0.588707     0.476230  Biso 1.000000     H
    H   1.0     0.345321     0.369373     0.444744  Biso 1.000000     H
    H   1.0     0.765102     0.918469     0.461625  Biso 1.000000     H
    H   1.0     0.263487     0.120274     0.818020  Biso 1.000000     H
    H   1.0     0.745418     0.911652     0.665383  Biso 1.000000     H
    H   1.0     0.143373     0.012781     0.562598  Biso 1.000000     H
    H   1.0     0.654662     0.630667     0.555335  Biso 1.000000     H
    H   1.0     0.289932     0.243249     0.303400  Biso 1.000000     H
    H   1.0     0.402295     0.356766     0.352612  Biso 1.000000     H
    H   1.0     0.474703    -0.026237     0.746367  Biso 1.000000     H
    H   1.0     0.627038     0.927615     0.148364  Biso 1.000000     H
    H   1.0     0.713851     0.911294     0.771175  Biso 1.000000     H
    H   1.0     0.765251     0.000000     0.268926  Biso 1.000000     H
    H   1.0     0.234735    -0.023432     0.731163  Biso 1.000000     H
    H   1.0     0.679098     0.997667     0.717294  Biso 1.000000     H
    H   1.0     0.735561     0.139559     0.675441  Biso 1.000000     H
    H   1.0     0.254562     0.088379     0.334695  Biso 1.000000     H
    H   1.0     0.525280     0.000000     0.253715  Biso 1.000000     H
    H   1.0     0.393625     0.666267     0.407858  Biso 1.000000     H
    H   1.0     0.660680     0.207663     0.699713  Biso 1.000000     H
    H   1.0     0.431063     0.917528     0.234592  Biso 1.000000     H
    H   1.0     0.856609     0.987254     0.437487  Biso 1.000000     H
    H   1.0     0.535977     0.426568     0.617099  Biso 1.000000     H
    H   1.0     0.597691     0.643263     0.647467  Biso 1.000000     H
    H   1.0     0.517380     0.113245     0.863533  Biso 1.000000     H
    H   1.0     0.482602     0.886791     0.136548  Biso 1.000000     H
    H   1.0     0.286137     0.088742     0.228910  Biso 1.000000     H
    C   1.0     0.148888     0.456329     0.448097  Biso 1.000000     C
    C   1.0     0.795867     0.502996     0.427510  Biso 1.000000     C
    C   1.0     0.415238     0.709992     0.776627  Biso 1.000000     C
    C   1.0     0.782124     0.199933     0.145621  Biso 1.000000     C
    C   1.0     0.584746     0.290047     0.223454  Biso 1.000000     C
    C   1.0     0.776189     0.851691     0.981598  Biso 1.000000     C
    C   1.0     0.406594     0.306940     0.133891  Biso 1.000000     C
    C   1.0     0.223794     0.148344     0.018480  Biso 1.000000     C
    C   1.0     0.783394     0.580694     0.395226  Biso 1.000000     C
    C   1.0     0.092674     0.828200     0.352087  Biso 1.000000     C
    C   1.0     0.121847     0.268179     0.393720  Biso 1.000000     C
    C   1.0     0.894576     0.284633     0.453234  Biso 1.000000     C
    C   1.0     0.474732     0.821975     0.828471  Biso 1.000000     C
    C   1.0     0.067026     0.752154     0.469573  Biso 1.000000     C
    C   1.0     0.349033     0.196830     0.088094  Biso 1.000000     C
    C   1.0     0.525252     0.178064     0.171611  Biso 1.000000     C
    C   1.0     0.202566     0.688542     0.786329  Biso 1.000000     C
    C   1.0     0.854918     0.387112     0.201643  Biso 1.000000     C
    C   1.0     0.118818     0.758474     0.940819  Biso 1.000000     C
    C   1.0     0.175716     0.306643     0.516963  Biso 1.000000     C
    C   1.0     0.881171     0.241565     0.059268  Biso 1.000000     C
    C   1.0     0.109333     0.344424     0.360534  Biso 1.000000     C
    C   1.0     0.280291     0.753072     0.559329  Biso 1.000000     C
    C   1.0     0.864983     0.210383     0.564037  Biso 1.000000     C
    C   1.0     0.590299     0.867230     0.891886  Biso 1.000000     C
    C   1.0     0.928928     0.205714     0.980870  Biso 1.000000     C
    C   1.0     0.878141     0.731861     0.606362  Biso 1.000000     C
    C   1.0     0.212852     0.714344     0.592924  Biso 1.000000     C
    C   1.0     0.921191     0.852270     0.704775  Biso 1.000000     C
    C   1.0     0.907303     0.171837     0.647992  Biso 1.000000     C
    C   1.0     0.145066     0.612927     0.798439  Biso 1.000000     C
    C   1.0     0.823406     0.165193     0.069850  Biso 1.000000     C
    C   1.0     0.757355     0.209310     0.517086  Biso 1.000000     C
    C   1.0     0.216588     0.419344     0.604855  Biso 1.000000     C
    C   1.0     0.787130     0.285694     0.407157  Biso 1.000000     C
    C   1.0     0.890654     0.655617     0.639548  Biso 1.000000     C
    C   1.0     0.719690     0.246968     0.440753  Biso 1.000000     C
    C   1.0     0.078789     0.147769     0.295305  Biso 1.000000     C
    C   1.0     0.104447     0.647401     0.875300  Biso 1.000000     C
    C   1.0     0.851097     0.543710     0.551985  Biso 1.000000     C
    C   1.0     0.242625     0.790730     0.482996  Biso 1.000000     C
    C   1.0     0.797419     0.311497     0.213754  Biso 1.000000     C
    C   1.0     0.176582     0.834846     0.930236  Biso 1.000000     C
    C   1.0     0.134996     0.789655     0.436044  Biso 1.000000     C
    C   1.0     0.650950     0.803205     0.911984  Biso 1.000000     C
    C   1.0     0.217862     0.800106     0.854464  Biso 1.000000     C
    C   1.0     0.071058     0.794323     0.019214  Biso 1.000000     C
    C   1.0     0.932954     0.247883     0.530507  Biso 1.000000     C
    C   1.0     0.593387     0.693095     0.866188  Biso 1.000000     C
    C   1.0     0.522391     0.353340     0.203264  Biso 1.000000     C
    C   1.0     0.895539     0.352638     0.124783  Biso 1.000000     C
    C   1.0     0.477591     0.646697     0.796816  Biso 1.000000     C
    C   1.0     0.204116     0.497043     0.572572  Biso 1.000000     C
    C   1.0     0.409686     0.132806     0.108195  Biso 1.000000     C
    C   1.0     0.105404     0.715404     0.546847  Biso 1.000000     C
    C   1.0     0.824267     0.693396     0.483118  Biso 1.000000     C
    C   1.0     0.703956     0.939920     0.221797  Biso 1.000000     C
    C   1.0     0.633748     0.686991     0.617404  Biso 1.000000     C
    C   1.0     0.427701     0.171703     0.413940  Biso 1.000000     C
    C   1.0     0.598705     0.932927     0.320374  Biso 1.000000     C
    C   1.0     0.495921     0.059304     0.770006  Biso 1.000000     C
    C   1.0     0.683465     0.916707     0.691573  Biso 1.000000     C
    C   1.0     0.572281     0.828333     0.586149  Biso 1.000000     C
    C   1.0     0.551497     0.367389     0.550906  Biso 1.000000     C
    C   1.0     0.401275     0.067106     0.679707  Biso 1.000000     C
    C   1.0     0.448483     0.632647     0.449182  Biso 1.000000     C
    C   1.0     0.779684     0.917537     0.393042  Biso 1.000000     C
    C   1.0     0.220297     0.082498     0.607041  Biso 1.000000     C
    C   1.0     0.296029     0.060120     0.778289  Biso 1.000000     C
    C   1.0     0.366235     0.313044     0.382678  Biso 1.000000     C
    C   1.0     0.504061     0.940732     0.230075  Biso 1.000000     C
    C   1.0     0.316520     0.083327     0.308510  Biso 1.000000     C
    N   1.0     0.446862     0.277587     0.445173  Biso 1.000000     N
    N   1.0     0.553118     0.722449     0.554915  Biso 1.000000     N
    N   1.0     0.686460     0.926189     0.308178  Biso 1.000000     N
    N   1.0     0.313522     0.073847     0.691905  Biso 1.000000     N
    O   1.0     0.006010     0.176122     0.691021  Biso 1.000000     O
    O   1.0     0.072131     0.077143     0.323873  Biso 1.000000     O
    O   1.0     0.179097     0.092826     0.046709  Biso 1.000000     O
    O   1.0     0.973871     0.271811     0.964483  Biso 1.000000     O
    O   1.0     0.820887     0.907201     0.953364  Biso 1.000000     O
    O   1.0     0.026105     0.728222     0.035592  Biso 1.000000     O
    O   1.0     0.927845     0.922895     0.676205  Biso 1.000000     O
    O   1.0     0.157441     0.866343     0.325865  Biso 1.000000     O
    O   1.0     0.823761     0.831508     0.062448  Biso 1.000000     O
    O   1.0     0.842536     0.133698     0.674218  Biso 1.000000     O
    O   1.0     0.993967     0.823914     0.309060  Biso 1.000000     O
    O   1.0     0.080825     0.897486     0.072204  Biso 1.000000     O
    O   1.0     0.919167     0.102553     0.927886  Biso 1.000000     O
    O   1.0     0.945401     0.871222     0.807815  Biso 1.000000     O
    O   1.0     0.054592     0.128819     0.192268  Biso 1.000000     O
    O   1.0     0.176220     0.168533     0.937637  Biso 1.000000     O
    O   1.0     0.404579     0.068554     0.594336  Biso 1.000000     O
    O   1.0     0.595398     0.931475     0.405741  Biso 1.000000     O
    O   1.0     0.334174     0.863708     0.320335  Biso 1.000000     O
    O   1.0     0.665796     0.136316     0.679739  Biso 1.000000     O
    O   1.0     0.503260     0.149530     0.474311  Biso 1.000000     O
    O   1.0     0.496720     0.850507     0.525782  Biso 1.000000     O
   Si   1.0     0.741443     0.349353     0.316374  Biso 1.000000    Si
   Si   1.0     0.258541     0.650687     0.683708  Biso 1.000000    Si
   Cd   1.0     0.992212     0.110349     0.811838  Biso 1.000000    Cd
   Cd   1.0     0.007769     0.889688     0.188243  Biso 1.000000    Cd
   Cd   1.0    -0.000007     0.000010     0.000022  Biso 1.000000    Cd
   Cd   1.0     0.499984     0.000011     0.500037  Biso 1.000000    Cd
