#======================================================================

# CRYSTAL DATA

#----------------------------------------------------------------------

data_VESTA_phase_1


_pd_phase_name                         MOF
_cell_length_a                         13.46400
_cell_length_b                         14.94900
_cell_length_c                         14.95300
_cell_angle_alpha                      89.95300
_cell_angle_beta                       89.98200
_cell_angle_gamma                      89.96400
_symmetry_space_group_name_H-M         "P 1"
_symmetry_Int_Tables_number            1

loop_
_symmetry_equiv_pos_as_xyz
   "x, y, z"

loop_
   _atom_site_label
   _atom_site_occupancy
   _atom_site_fract_x
   _atom_site_fract_y
   _atom_site_fract_z
   _atom_site_adp_type
   _atom_site_B_iso_or_equiv
   _atom_site_type_symbol
    H   1.0     0.429922     0.967546     0.683551  Biso 1.000000     H
    H   1.0     0.260544     0.000000     0.583965  Biso 1.000000     H
    H   1.0     0.291400     0.723378     0.618119  Biso 1.000000     H
    H   1.0     0.202793     0.948487     0.437001  Biso 1.000000     H
    H   1.0     0.055087     0.920900     0.340341  Biso 1.000000     H
    H   1.0     0.959299     0.711356     0.515639  Biso 1.000000     H
    H   1.0     0.106124     0.739107     0.615207  Biso 1.000000     H
    H   1.0     0.417167     0.542735     0.706675  Biso 1.000000     H
    H   1.0     0.415169     0.418891     0.593174  Biso 1.000000     H
    H   1.0     0.569649     0.683836     0.967371  Biso 1.000000     H
    H   1.0     0.739147     0.584359     0.000000  Biso 1.000000     H
    H   1.0     0.708980     0.618611     0.723440  Biso 1.000000     H
    H   1.0     0.797332     0.437470     0.948585  Biso 1.000000     H
    H   1.0     0.945093     0.340690     0.920973  Biso 1.000000     H
    H   1.0     0.041001     0.515969     0.711470  Biso 1.000000     H
    H   1.0     0.894131     0.615667     0.739264  Biso 1.000000     H
    H   1.0     0.583530     0.706695     0.542639  Biso 1.000000     H
    H   1.0     0.586256     0.592874     0.419100  Biso 1.000000     H
    H   1.0     0.500938     0.445267     0.445711  Biso 1.000000     H
    H   1.0     0.930375     0.032669     0.316555  Biso 1.000000     H
    H   1.0     0.761011    -0.003975     0.416174  Biso 1.000000     H
    H   1.0     0.791321     0.276803     0.381761  Biso 1.000000     H
    H   1.0     0.703166     0.051786     0.563060  Biso 1.000000     H
    H   1.0     0.555333     0.079219     0.659746  Biso 1.000000     H
    H   1.0     0.459054     0.288657     0.484449  Biso 1.000000     H
    H   1.0     0.606019     0.261018     0.384827  Biso 1.000000     H
    H   1.0     0.916863     0.457606     0.293553  Biso 1.000000     H
    H   1.0     0.914418     0.581252     0.407257  Biso 1.000000     H
    H   1.0     0.070044     0.316871     0.032646  Biso 1.000000     H
    H   1.0     0.239523     0.416282    -0.003914  Biso 1.000000     H
    H   1.0     0.208908     0.381718     0.276779  Biso 1.000000     H
    H   1.0     0.297334     0.562949     0.051721  Biso 1.000000     H
    H   1.0     0.444983     0.659684     0.079238  Biso 1.000000     H
    H   1.0     0.540972     0.484485     0.288832  Biso 1.000000     H
    H   1.0     0.394169     0.384841     0.261144  Biso 1.000000     H
    H   1.0     0.083253     0.293450     0.457429  Biso 1.000000     H
    H   1.0     0.085495     0.407039     0.581188  Biso 1.000000     H
    H   1.0    -0.000150     0.554618     0.554789  Biso 1.000000     H
    H   1.0     0.680876     0.816819     0.467450  Biso 1.000000     H
    H   1.0     0.511579     0.916557     0.504221  Biso 1.000000     H
    H   1.0     0.541447     0.881966     0.223508  Biso 1.000000     H
    H   1.0     0.452991     0.063228     0.448435  Biso 1.000000     H
    H   1.0     0.305054     0.159785     0.420705  Biso 1.000000     H
    H   1.0     0.209590    -0.015557     0.211427  Biso 1.000000     H
    H   1.0     0.356680     0.885015     0.239312  Biso 1.000000     H
    H   1.0     0.666989     0.793841     0.042427  Biso 1.000000     H
    H   1.0     0.664683     0.907574     0.918635  Biso 1.000000     H
    H   1.0     0.819566     0.532806     0.183584  Biso 1.000000     H
    H   1.0     0.989121     0.495979     0.084253  Biso 1.000000     H
    H   1.0     0.958978     0.776776     0.118502  Biso 1.000000     H
    H   1.0     0.047265     0.551768     0.937430  Biso 1.000000     H
    H   1.0     0.195071     0.579365     0.840758  Biso 1.000000     H
    H   1.0     0.291047     0.788539     0.000000  Biso 1.000000     H
    H   1.0     0.144123     0.760750     0.115623  Biso 1.000000     H
    H   1.0     0.832924     0.957852     0.206408  Biso 1.000000     H
    H   1.0     0.835303     0.081584     0.092651  Biso 1.000000     H
    H   1.0     0.750015     0.055135     0.945058  Biso 1.000000     H
    H   1.0     0.180755     0.183562     0.533036  Biso 1.000000     H
    H   1.0     0.011396     0.084178     0.496094  Biso 1.000000     H
    H   1.0     0.041154     0.118212     0.776864  Biso 1.000000     H
    H   1.0     0.953081     0.937379     0.551700  Biso 1.000000     H
    H   1.0     0.805309     0.840754     0.579256  Biso 1.000000     H
    H   1.0     0.709277     0.000000     0.788710  Biso 1.000000     H
    H   1.0     0.856198     0.115329     0.760988  Biso 1.000000     H
    H   1.0     0.166862     0.206466     0.957851  Biso 1.000000     H
    H   1.0     0.164311     0.092622     0.081541  Biso 1.000000     H
    H   1.0     0.319565     0.467373     0.816489  Biso 1.000000     H
    H   1.0     0.488768     0.504228     0.916090  Biso 1.000000     H
    H   1.0     0.458859     0.223402     0.882250  Biso 1.000000     H
    H   1.0     0.546971     0.448488     0.063110  Biso 1.000000     H
    H   1.0     0.694800     0.420862     0.159707  Biso 1.000000     H
    H   1.0     0.790906     0.211536    -0.015506  Biso 1.000000     H
    H   1.0     0.643917     0.239324     0.884993  Biso 1.000000     H
    H   1.0     0.332934     0.042338     0.793825  Biso 1.000000     H
    H   1.0     0.335074     0.918486     0.907469  Biso 1.000000     H
    H   1.0     0.249586     0.944942     0.055024  Biso 1.000000     H
    C   1.0     0.376571     0.922058     0.654072  Biso 1.000000     C
    C   1.0     0.293594     0.941397     0.604488  Biso 1.000000     C
    C   1.0     0.306986     0.794268     0.623320  Biso 1.000000     C
    C   1.0     0.163356     0.845062     0.531443  Biso 1.000000     C
    C   1.0     0.148911     0.897261     0.454891  Biso 1.000000     C
    C   1.0     0.066620     0.881606     0.400818  Biso 1.000000     C
    C   1.0     0.998276     0.814083     0.421976  Biso 1.000000     C
    C   1.0     0.013643     0.762687     0.499172  Biso 1.000000     C
    C   1.0     0.095418     0.777899     0.554199  Biso 1.000000     C
    C   1.0     0.909797     0.797499     0.362191  Biso 1.000000     C
    C   1.0     0.454283     0.549893     0.642431  Biso 1.000000     C
    C   1.0     0.452975     0.481884     0.578713  Biso 1.000000     C
    C   1.0     0.623195     0.654402     0.921973  Biso 1.000000     C
    C   1.0     0.706233     0.604882     0.941412  Biso 1.000000     C
    C   1.0     0.693196     0.623770     0.794292  Biso 1.000000     C
    C   1.0     0.836799     0.531901     0.845170  Biso 1.000000     C
    C   1.0     0.851273     0.455359     0.897392  Biso 1.000000     C
    C   1.0     0.933519     0.401154     0.881651  Biso 1.000000     C
    C   1.0     0.001954     0.422311     0.814180  Biso 1.000000     C
    C   1.0     0.986574     0.499496     0.762750  Biso 1.000000     C
    C   1.0     0.904840     0.554651     0.778062  Biso 1.000000     C
    C   1.0     0.090368     0.362373     0.797518  Biso 1.000000     C
    C   1.0     0.546600     0.642387     0.549897  Biso 1.000000     C
    C   1.0     0.548317     0.578495     0.482058  Biso 1.000000     C
    C   1.0     0.500773     0.496896     0.497197  Biso 1.000000     C
    C   1.0     0.876919     0.078154     0.346005  Biso 1.000000     C
    C   1.0     0.793952     0.058797     0.395605  Biso 1.000000     C
    C   1.0     0.807064     0.205918     0.376640  Biso 1.000000     C
    C   1.0     0.663486     0.155109     0.468590  Biso 1.000000     C
    C   1.0     0.649157     0.102958     0.545187  Biso 1.000000     C
    C   1.0     0.566782     0.118516     0.599259  Biso 1.000000     C
    C   1.0     0.498272     0.185998     0.578107  Biso 1.000000     C
    C   1.0     0.513567     0.237376     0.500886  Biso 1.000000     C
    C   1.0     0.595416     0.222240     0.445856  Biso 1.000000     C
    C   1.0     0.409735     0.202548     0.637895  Biso 1.000000     C
    C   1.0     0.953883     0.450351     0.357814  Biso 1.000000     C
    C   1.0     0.952296     0.518239     0.421656  Biso 1.000000     C
    C   1.0     0.123481     0.346202     0.078143  Biso 1.000000     C
    C   1.0     0.206509     0.395698     0.058828  Biso 1.000000     C
    C   1.0     0.193233     0.376654     0.205910  Biso 1.000000     C
    C   1.0     0.336847     0.468542     0.155152  Biso 1.000000     C
    C   1.0     0.351230     0.545106     0.102956  Biso 1.000000     C
    C   1.0     0.433502     0.599208     0.118549  Biso 1.000000     C
    C   1.0     0.501903     0.578096     0.186075  Biso 1.000000     C
    C   1.0     0.486566     0.500904     0.237498  Biso 1.000000     C
    C   1.0     0.404804     0.445853     0.222335  Biso 1.000000     C
    C   1.0     0.590356     0.637903     0.202609  Biso 1.000000     C
    C   1.0     0.046190     0.357746     0.450259  Biso 1.000000     C
    C   1.0     0.047622     0.421501     0.518228  Biso 1.000000     C
    C   1.0    -0.000075     0.503099     0.503194  Biso 1.000000     C
    C   1.0     0.627344     0.846271     0.422033  Biso 1.000000     C
    C   1.0     0.544401     0.895921     0.441439  Biso 1.000000     C
    C   1.0     0.557273     0.876862     0.294355  Biso 1.000000     C
    C   1.0     0.413749     0.968796     0.345144  Biso 1.000000     C
    C   1.0     0.399136     0.045284     0.397251  Biso 1.000000     C
    C   1.0     0.316757     0.099330     0.381493  Biso 1.000000     C
    C   1.0     0.248380     0.078099     0.314044  Biso 1.000000     C
    C   1.0     0.263959     0.000959     0.262711  Biso 1.000000     C
    C   1.0     0.345826     0.945997     0.278035  Biso 1.000000     C
    C   1.0     0.159780     0.137818     0.297425  Biso 1.000000     C
    C   1.0     0.703935     0.858134     0.049616  Biso 1.000000     C
    C   1.0     0.702446     0.921987     0.981627  Biso 1.000000     C
    C   1.0     0.873134     0.578210     0.154195  Biso 1.000000     C
    C   1.0     0.956196     0.558788     0.104742  Biso 1.000000     C
    C   1.0     0.943177     0.705910     0.123618  Biso 1.000000     C
    C   1.0     0.086775     0.655021     0.031843  Biso 1.000000     C
    C   1.0     0.101209     0.602899     0.955323  Biso 1.000000     C
    C   1.0     0.183510     0.618596     0.901210  Biso 1.000000     C
    C   1.0     0.251967     0.686009     0.922351  Biso 1.000000     C
    C   1.0     0.236589     0.737319     0.999532  Biso 1.000000     C
    C   1.0     0.154814     0.722047     0.054612  Biso 1.000000     C
    C   1.0     0.340407     0.702606     0.862457  Biso 1.000000     C
    C   1.0     0.795999     0.950646     0.142113  Biso 1.000000     C
    C   1.0     0.797520     0.018593     0.078250  Biso 1.000000     C
    C   1.0     0.749994     0.003540     0.996665  Biso 1.000000     C
    C   1.0     0.127165     0.154115     0.578389  Biso 1.000000     C
    C   1.0     0.044200     0.104640     0.558912  Biso 1.000000     C
    C   1.0     0.057030     0.123421     0.706024  Biso 1.000000     C
    C   1.0     0.913576     0.031678     0.655093  Biso 1.000000     C
    C   1.0     0.899141     0.955245     0.602896  Biso 1.000000     C
    C   1.0     0.816843     0.901150     0.618571  Biso 1.000000     C
    C   1.0     0.748343     0.922271     0.686024  Biso 1.000000     C
    C   1.0     0.763744     0.999366     0.737440  Biso 1.000000     C
    C   1.0     0.845522     0.054380     0.722197  Biso 1.000000     C
    C   1.0     0.659815     0.862495     0.702555  Biso 1.000000     C
    C   1.0     0.203762     0.142111     0.950619  Biso 1.000000     C
    C   1.0     0.202173     0.078215     0.018565  Biso 1.000000     C
    C   1.0     0.373050     0.421955     0.846044  Biso 1.000000     C
    C   1.0     0.455944     0.441409     0.895632  Biso 1.000000     C
    C   1.0     0.443030     0.294268     0.876958  Biso 1.000000     C
    C   1.0     0.586519     0.345164     0.968730  Biso 1.000000     C
    C   1.0     0.600938     0.397302     0.045224  Biso 1.000000     C
    C   1.0     0.683292     0.381621     0.099266  Biso 1.000000     C
    C   1.0     0.751768     0.314134     0.078109  Biso 1.000000     C
    C   1.0     0.736424     0.262818     0.000952  Biso 1.000000     C
    C   1.0     0.654587     0.278066     0.945964  Biso 1.000000     C
    C   1.0     0.840323     0.297521     0.137823  Biso 1.000000     C
    C   1.0     0.295906     0.049528     0.858099  Biso 1.000000     C
    C   1.0     0.297330     0.981535     0.921912  Biso 1.000000     C
    C   1.0     0.249654     0.996579     0.003461  Biso 1.000000     C
    N   1.0     0.384201     0.830315     0.664878  Biso 1.000000     N
    N   1.0     0.249261     0.859513     0.585254  Biso 1.000000     N
    N   1.0     0.615787     0.665232     0.830249  Biso 1.000000     N
    N   1.0     0.750809     0.585715     0.859586  Biso 1.000000     N
    N   1.0     0.500318     0.628937     0.628861  Biso 1.000000     N
    N   1.0     0.884392     0.169889     0.335118  Biso 1.000000     N
    N   1.0     0.749440     0.140682     0.414761  Biso 1.000000     N
    N   1.0     0.115914     0.335264     0.169851  Biso 1.000000     N
    N   1.0     0.250939     0.414747     0.140703  Biso 1.000000     N
    N   1.0     0.000027     0.371307     0.371276  Biso 1.000000     N
    N   1.0     0.634643     0.835335     0.330327  Biso 1.000000     N
    N   1.0     0.499772     0.915043     0.359621  Biso 1.000000     N
    N   1.0     0.865749     0.669947     0.165022  Biso 1.000000     N
    N   1.0     0.000000     0.640612     0.085612  Biso 1.000000     N
    N   1.0     0.749960     0.871610     0.128647  Biso 1.000000     N
    N   1.0     0.134445     0.164880     0.670111  Biso 1.000000     N
    N   1.0    -0.000477     0.085437     0.640707  Biso 1.000000     N
    N   1.0     0.365705     0.330207     0.835337  Biso 1.000000     N
    N   1.0     0.500543     0.359575     0.914950  Biso 1.000000     N
    N   1.0     0.249930     0.128640     0.871619  Biso 1.000000     N
    O   1.0     0.899754     0.847391     0.293821  Biso 1.000000     O
    O   1.0     0.850307     0.734448     0.382909  Biso 1.000000     O
    O   1.0     0.100363     0.293997     0.847422  Biso 1.000000     O
    O   1.0     0.149838     0.382943     0.734388  Biso 1.000000     O
    O   1.0     0.399716     0.152661     0.706273  Biso 1.000000     O
    O   1.0     0.350179     0.265603     0.617172  Biso 1.000000     O
    O   1.0     0.600344     0.706283     0.152717  Biso 1.000000     O
    O   1.0     0.649898     0.617170     0.265624  Biso 1.000000     O
    O   1.0     0.149639     0.206140     0.347276  Biso 1.000000     O
    O   1.0     0.100289     0.117125     0.234414  Biso 1.000000     O
    O   1.0     0.350453     0.652681     0.794199  Biso 1.000000     O
    O   1.0     0.399844     0.765727     0.882946  Biso 1.000000     O
    O   1.0     0.649750     0.794286     0.652578  Biso 1.000000     O
    O   1.0     0.600292     0.883036     0.765650  Biso 1.000000     O
    O   1.0     0.850391     0.347387     0.206119  Biso 1.000000     O
    O   1.0     0.899865     0.234466     0.117131  Biso 1.000000     O
   Cd   1.0     0.500028     0.745393     0.745160  Biso 1.000000    Cd
   Cd   1.0     0.000065     0.254998     0.254861  Biso 1.000000    Cd
   Cd   1.0     0.750051     0.755034     0.245117  Biso 1.000000    Cd
   Cd   1.0     0.250082     0.245099     0.755151  Biso 1.000000    Cd
