#======================================================================

# CRYSTAL DATA

#----------------------------------------------------------------------

data_VESTA_phase_1


_pd_phase_name                         MOF
_cell_length_a                         14.20100
_cell_length_b                         14.66900
_cell_length_c                         14.49500
_cell_angle_alpha                      116.68400
_cell_angle_beta                       113.87700
_cell_angle_gamma                      97.11200
_symmetry_space_group_name_H-M         "P 1"
_symmetry_Int_Tables_number            1

loop_
_symmetry_equiv_pos_as_xyz
   "x, y, z"

loop_
   _atom_site_label
   _atom_site_occupancy
   _atom_site_fract_x
   _atom_site_fract_y
   _atom_site_fract_z
   _atom_site_adp_type
   _atom_site_B_iso_or_equiv
   _atom_site_type_symbol
    H   1.0     0.309018     0.252622     0.453614  Biso 1.000000     H
    H   1.0     0.236249     0.053146     0.300472  Biso 1.000000     H
    H   1.0     0.445231     0.911334     0.123562  Biso 1.000000     H
    H   1.0     0.868054     0.556856     0.098117  Biso 1.000000     H
    H   1.0     0.445177     0.804263     0.422577  Biso 1.000000     H
    H   1.0     0.855583     0.849267     0.100963  Biso 1.000000     H
    H   1.0     0.374803     0.976214     0.263703  Biso 1.000000     H
    H   1.0     0.206907     0.699268     0.559253  Biso 1.000000     H
    H   1.0     0.438385     0.195148     0.737088  Biso 1.000000     H
    H   1.0     0.367964     0.995641     0.586958  Biso 1.000000     H
    H   1.0     0.060760     0.936470     0.228422  Biso 1.000000     H
    H   1.0     0.511721     0.738822     0.558621  Biso 1.000000     H
    H   1.0     0.306358     0.579278     0.017314  Biso 1.000000     H
    H   1.0     0.230209     0.640609     0.151255  Biso 1.000000     H
    H   1.0     0.141552     0.767116     0.428282  Biso 1.000000     H
    H   1.0     0.072605     0.637475     0.211901  Biso 1.000000     H
    H   1.0     0.690964     0.747417     0.546329  Biso 1.000000     H
    H   1.0     0.763731     0.946892     0.699481  Biso 1.000000     H
    H   1.0     0.554738     0.088716     0.876399  Biso 1.000000     H
    H   1.0     0.131926     0.443186     0.901858  Biso 1.000000     H
    H   1.0     0.554802     0.195785     0.577385  Biso 1.000000     H
    H   1.0     0.144387     0.150772     0.899010  Biso 1.000000     H
    H   1.0     0.625179     0.023833     0.736270  Biso 1.000000     H
    H   1.0     0.793067     0.300759     0.440694  Biso 1.000000     H
    H   1.0     0.561594     0.804910     0.262870  Biso 1.000000     H
    H   1.0     0.632023     0.004416     0.413010  Biso 1.000000     H
    H   1.0     0.939210     0.063573     0.771548  Biso 1.000000     H
    H   1.0     0.488260     0.261226     0.441342  Biso 1.000000     H
    H   1.0     0.693605     0.420767     0.982633  Biso 1.000000     H
    H   1.0     0.769763     0.359433     0.848699  Biso 1.000000     H
    H   1.0     0.858426     0.232924     0.571676  Biso 1.000000     H
    H   1.0     0.927374     0.362570     0.788071  Biso 1.000000     H
    H   1.0     0.707378     0.575057     0.533191  Biso 1.000000     H
    H   1.0     0.629013     0.501559     0.565303  Biso 1.000000     H
    H   1.0     0.686236     0.647447     0.657311  Biso 1.000000     H
    H   1.0     0.167284     0.494564     0.719360  Biso 1.000000     H
    H   1.0     0.212626     0.405967     0.764750  Biso 1.000000     H
    H   1.0     0.240559     0.420283     0.662378  Biso 1.000000     H
    H   1.0     0.964288     0.464372     0.717783  Biso 1.000000     H
    H   1.0     0.055947     0.601294     0.795380  Biso 1.000000     H
    H   1.0     0.900144     0.161450     0.393604  Biso 1.000000     H
    H   1.0     0.976687     0.072620     0.376996  Biso 1.000000     H
    H   1.0     0.909553     0.083217     0.460118  Biso 1.000000     H
    H   1.0     0.207803     0.255620     0.695255  Biso 1.000000     H
    H   1.0     0.093742     0.142145     0.641959  Biso 1.000000     H
    H   1.0     0.158582     0.129937     0.555885  Biso 1.000000     H
    H   1.0     0.983921     0.672588     0.927566  Biso 1.000000     H
    H   1.0     0.953163     0.539904     0.901251  Biso 1.000000     H
    H   1.0     0.786376     0.621585     0.837850  Biso 1.000000     H
    H   1.0     0.759519     0.479140     0.748403  Biso 1.000000     H
    H   1.0     0.151791     0.706671     0.701777  Biso 1.000000     H
    H   1.0     0.231048     0.642391     0.681379  Biso 1.000000     H
    H   1.0     0.292595     0.424972     0.466778  Biso 1.000000     H
    H   1.0     0.370962     0.498472     0.434671  Biso 1.000000     H
    H   1.0     0.313743     0.352585     0.342662  Biso 1.000000     H
    H   1.0     0.832683     0.505458     0.280589  Biso 1.000000     H
    H   1.0     0.787355     0.594068     0.235214  Biso 1.000000     H
    H   1.0     0.759410     0.579742     0.337575  Biso 1.000000     H
    H   1.0     0.035694     0.535655     0.282183  Biso 1.000000     H
    H   1.0     0.944026     0.398731     0.204561  Biso 1.000000     H
    H   1.0     0.099832     0.838554     0.606382  Biso 1.000000     H
    H   1.0     0.023297     0.927391     0.622997  Biso 1.000000     H
    H   1.0     0.090440     0.916803     0.539886  Biso 1.000000     H
    H   1.0     0.792189     0.744421     0.304733  Biso 1.000000     H
    H   1.0     0.906262     0.857891     0.358039  Biso 1.000000     H
    H   1.0     0.841416     0.870101     0.444109  Biso 1.000000     H
    H   1.0     0.016077     0.327454     0.072395  Biso 1.000000     H
    H   1.0     0.046835     0.460144     0.098724  Biso 1.000000     H
    H   1.0     0.213625     0.378470     0.162135  Biso 1.000000     H
    H   1.0     0.240472     0.520911     0.251591  Biso 1.000000     H
    H   1.0     0.848162     0.293312     0.298110  Biso 1.000000     H
    H   1.0     0.768908     0.357592     0.318521  Biso 1.000000     H
    C   1.0     0.295861     0.813382     0.217709  Biso 1.000000     C
    C   1.0     0.083971     0.793995     0.230870  Biso 1.000000     C
    C   1.0     0.406618     0.676475     0.652857  Biso 1.000000     C
    C   1.0     0.379994     0.741477     0.061762  Biso 1.000000     C
    C   1.0     0.287864     0.791915     0.414700  Biso 1.000000     C
    C   1.0     0.378297     0.236642     0.605425  Biso 1.000000     C
    C   1.0     0.428598     0.704584     0.983154  Biso 1.000000     C
    C   1.0     0.320865     0.195366     0.481722  Biso 1.000000     C
    C   1.0     0.279759     0.082397     0.396053  Biso 1.000000     C
    C   1.0     0.397550     0.853053     0.130497  Biso 1.000000     C
    C   1.0     0.294775     0.007081     0.430907  Biso 1.000000     C
    C   1.0     0.910479     0.639311     0.124644  Biso 1.000000     C
    C   1.0     0.392409     0.782396     0.452827  Biso 1.000000     C
    C   1.0     0.904067     0.804182     0.127781  Biso 1.000000     C
    C   1.0     0.356886     0.888517     0.208261  Biso 1.000000     C
    C   1.0     0.260524     0.723810     0.531562  Biso 1.000000     C
    C   1.0     0.722704     0.648616     0.022219  Biso 1.000000     C
    C   1.0     0.393659     0.162815     0.641134  Biso 1.000000     C
    C   1.0     0.423279     0.357654     0.701881  Biso 1.000000     C
    C   1.0     0.848073     0.698049     0.092446  Biso 1.000000     C
    C   1.0     0.353232     0.050500     0.555692  Biso 1.000000     C
    C   1.0     0.019882     0.852096     0.198282  Biso 1.000000     C
    C   1.0     0.365266     0.716137     0.570301  Biso 1.000000     C
    C   1.0     0.430664     0.745539     0.529594  Biso 1.000000     C
    C   1.0     0.318613     0.665597     0.069637  Biso 1.000000     C
    C   1.0     0.276772     0.701242     0.145847  Biso 1.000000     C
    C   1.0     0.223215     0.761714     0.455978  Biso 1.000000     C
    C   1.0     0.026145     0.685806     0.189971  Biso 1.000000     C
    C   1.0     0.704117     0.186663     0.782256  Biso 1.000000     C
    C   1.0     0.916003     0.206050     0.769103  Biso 1.000000     C
    C   1.0     0.593360     0.323563     0.347096  Biso 1.000000     C
    C   1.0     0.619953     0.258567     0.938172  Biso 1.000000     C
    C   1.0     0.712115     0.208131     0.585262  Biso 1.000000     C
    C   1.0     0.621676     0.763408     0.394527  Biso 1.000000     C
    C   1.0     0.571401     0.295481     0.016830  Biso 1.000000     C
    C   1.0     0.679118     0.804678     0.518227  Biso 1.000000     C
    C   1.0     0.720222     0.917645     0.603901  Biso 1.000000     C
    C   1.0     0.602423     0.146995     0.869465  Biso 1.000000     C
    C   1.0     0.705208     0.992966     0.569054  Biso 1.000000     C
    C   1.0     0.089498     0.360733     0.875336  Biso 1.000000     C
    C   1.0     0.607570     0.217649     0.547133  Biso 1.000000     C
    C   1.0     0.095904     0.195861     0.872199  Biso 1.000000     C
    C   1.0     0.643090     0.111529     0.791705  Biso 1.000000     C
    C   1.0     0.739451     0.276224     0.468390  Biso 1.000000     C
    C   1.0     0.277269     0.351453     0.977778  Biso 1.000000     C
    C   1.0     0.606324     0.837241     0.358824  Biso 1.000000     C
    C   1.0     0.576713     0.642402     0.298067  Biso 1.000000     C
    C   1.0     0.151901     0.301984     0.907513  Biso 1.000000     C
    C   1.0     0.646753     0.949554     0.444270  Biso 1.000000     C
    C   1.0     0.980090     0.147946     0.801688  Biso 1.000000     C
    C   1.0     0.634711     0.283900     0.429652  Biso 1.000000     C
    C   1.0     0.569315     0.254506     0.470365  Biso 1.000000     C
    C   1.0     0.681356     0.334449     0.930316  Biso 1.000000     C
    C   1.0     0.723199     0.298802     0.854108  Biso 1.000000     C
    C   1.0     0.776763     0.238326     0.543980  Biso 1.000000     C
    C   1.0     0.973832     0.314236     0.810000  Biso 1.000000     C
    C   1.0     0.070620     0.325595     0.580454  Biso 1.000000     C
    C   1.0     0.886134     0.560805     0.665037  Biso 1.000000     C
    C   1.0     0.700626     0.574464     0.605541  Biso 1.000000     C
    C   1.0     0.178400     0.415924     0.688780  Biso 1.000000     C
    C   1.0     0.971429     0.550823     0.761327  Biso 1.000000     C
    C   1.0     0.954236     0.129271     0.438177  Biso 1.000000     C
    C   1.0     0.133491     0.185733     0.614374  Biso 1.000000     C
    C   1.0     0.937596     0.584589     0.856488  Biso 1.000000     C
    C   1.0     0.813449     0.562604     0.785276  Biso 1.000000     C
    C   1.0     0.929354     0.674421     0.419510  Biso 1.000000     C
    C   1.0     0.113831     0.439206     0.334911  Biso 1.000000     C
    C   1.0     0.299350     0.425566     0.394430  Biso 1.000000     C
    C   1.0     0.821573     0.584101     0.311178  Biso 1.000000     C
    C   1.0     0.028548     0.449203     0.238628  Biso 1.000000     C
    C   1.0     0.045748     0.870742     0.561815  Biso 1.000000     C
    C   1.0     0.866504     0.814302     0.385617  Biso 1.000000     C
    C   1.0     0.062396     0.415453     0.143479  Biso 1.000000     C
    C   1.0     0.186542     0.437442     0.214704  Biso 1.000000     C
    N   1.0     0.801979     0.571495     0.684614  Biso 1.000000     N
    N   1.0     0.054580     0.220114     0.548166  Biso 1.000000     N
    N   1.0     0.197999     0.428535     0.315353  Biso 1.000000     N
    N   1.0     0.945403     0.779908     0.451819  Biso 1.000000     N
    O   1.0     0.416360     0.600937     0.927587  Biso 1.000000     O
    O   1.0     0.476621     0.770620     0.969137  Biso 1.000000     O
    O   1.0     0.419430     0.424959     0.668442  Biso 1.000000     O
    O   1.0     0.678620     0.600432     0.056974  Biso 1.000000     O
    O   1.0     0.342378     0.642284     0.681975  Biso 1.000000     O
    O   1.0     0.674847     0.660958     0.935354  Biso 1.000000     O
    O   1.0     0.504480     0.676476     0.691942  Biso 1.000000     O
    O   1.0     0.461024     0.381783     0.808870  Biso 1.000000     O
    O   1.0     0.583607     0.399120     0.072357  Biso 1.000000     O
    O   1.0     0.523298     0.229434     0.030781  Biso 1.000000     O
    O   1.0     0.580590     0.575095     0.331503  Biso 1.000000     O
    O   1.0     0.321351     0.399593     0.942987  Biso 1.000000     O
    O   1.0     0.657582     0.357707     0.317934  Biso 1.000000     O
    O   1.0     0.325129     0.339079     0.064618  Biso 1.000000     O
    O   1.0     0.495514     0.323605     0.308049  Biso 1.000000     O
    O   1.0     0.538887     0.618275     0.191070  Biso 1.000000     O
    O   1.0     0.160398     0.637089     0.684925  Biso 1.000000     O
    O   1.0     0.995027     0.346198     0.517693  Biso 1.000000     O
    O   1.0     0.890187     0.558659     0.578977  Biso 1.000000     O
    O   1.0     0.839559     0.362899     0.314978  Biso 1.000000     O
    O   1.0     0.004941     0.653804     0.482261  Biso 1.000000     O
    O   1.0     0.109755     0.441325     0.420950  Biso 1.000000     O
   Si   1.0     0.240889     0.853469     0.322501  Biso 1.000000    Si
   Si   1.0     0.759086     0.146576     0.677461  Biso 1.000000    Si
   Cd   1.0     0.491216     0.610311     0.811657  Biso 1.000000    Cd
   Cd   1.0     0.508763     0.389735     0.188303  Biso 1.000000    Cd
   Cd   1.0     0.499977     0.500021    -0.000032  Biso 1.000000    Cd
   Cd   1.0    -0.000021     0.499992     0.499963  Biso 1.000000    Cd
