#======================================================================

# CRYSTAL DATA

#----------------------------------------------------------------------

data_VESTA_phase_1


_pd_phase_name                         MOF
_cell_length_a                         13.74800
_cell_length_b                         14.89700
_cell_length_c                         14.67900
_cell_angle_alpha                      107.38700
_cell_angle_beta                       112.49600
_cell_angle_gamma                      99.97500
_symmetry_space_group_name_H-M         "P 1"
_symmetry_Int_Tables_number            1

loop_
_symmetry_equiv_pos_as_xyz
   "x, y, z"

loop_
   _atom_site_label
   _atom_site_occupancy
   _atom_site_fract_x
   _atom_site_fract_y
   _atom_site_fract_z
   _atom_site_adp_type
   _atom_site_B_iso_or_equiv
   _atom_site_type_symbol
    H   1.0     0.125057     0.745414     0.466082  Biso 1.000000     H
    H   1.0     0.920442     0.687805     0.353388  Biso 1.000000     H
    H   1.0     0.969442     0.735669     0.095635  Biso 1.000000     H
    H   1.0     0.172848     0.800335     0.212236  Biso 1.000000     H
    H   1.0     0.538077     0.638934     0.759300  Biso 1.000000     H
    H   1.0     0.601489     0.564369     0.892856  Biso 1.000000     H
    H   1.0     0.853110     0.847463     0.123864  Biso 1.000000     H
    H   1.0     0.788301     0.920187     0.989596  Biso 1.000000     H
    H   1.0     0.525498     0.290851     0.945509  Biso 1.000000     H
    H   1.0     0.567287     0.471942     0.040297  Biso 1.000000     H
    H   1.0     0.902536     0.524609     0.078743  Biso 1.000000     H
    H   1.0     0.858541     0.343410     0.982391  Biso 1.000000     H
    H   1.0     0.603879     0.637889     0.378406  Biso 1.000000     H
    H   1.0     0.673911     0.563694     0.250718  Biso 1.000000     H
    H   1.0     0.722406     0.833935     0.196481  Biso 1.000000     H
    H   1.0     0.657120     0.906987     0.326343  Biso 1.000000     H
    H   1.0     0.448802     0.984997     0.637473  Biso 1.000000     H
    H   1.0     0.875999     0.254814     0.534034  Biso 1.000000     H
    H   1.0     0.080612     0.312279     0.646729  Biso 1.000000     H
    H   1.0     0.031488     0.264091     0.904294  Biso 1.000000     H
    H   1.0     0.828080     0.199540     0.787676  Biso 1.000000     H
    H   1.0     0.462675     0.360682     0.240692  Biso 1.000000     H
    H   1.0     0.399374     0.435313     0.107181  Biso 1.000000     H
    H   1.0     0.147703     0.152276     0.876059  Biso 1.000000     H
    H   1.0     0.212365     0.079500     0.010304  Biso 1.000000     H
    H   1.0     0.475503     0.708962     0.054575  Biso 1.000000     H
    H   1.0     0.433754     0.527889     0.959760  Biso 1.000000     H
    H   1.0     0.098505     0.475139     0.921326  Biso 1.000000     H
    H   1.0     0.142455     0.656314     0.017694  Biso 1.000000     H
    H   1.0     0.397068     0.361702     0.621548  Biso 1.000000     H
    H   1.0     0.327040     0.435937     0.749213  Biso 1.000000     H
    H   1.0     0.278598     0.165764     0.803585  Biso 1.000000     H
    H   1.0     0.343941     0.092688     0.673793  Biso 1.000000     H
    H   1.0     0.552268     0.014928     0.362055  Biso 1.000000     H
    C   1.0     0.285219     0.814965     0.416474  Biso 1.000000     C
    C   1.0     0.161813     0.777621     0.346835  Biso 1.000000     C
    C   1.0     0.089878     0.744257     0.385292  Biso 1.000000     C
    C   1.0     0.975016     0.711011     0.320922  Biso 1.000000     C
    C   1.0     0.928732     0.706594     0.215295  Biso 1.000000     C
    C   1.0     0.000000     0.738658     0.177356  Biso 1.000000     C
    C   1.0     0.117200     0.775384     0.242637  Biso 1.000000     C
    C   1.0     0.620361     0.831633     0.788746  Biso 1.000000     C
    C   1.0     0.658662     0.784424     0.866570  Biso 1.000000     C
    C   1.0     0.606642     0.683924     0.839665  Biso 1.000000     C
    C   1.0     0.642594     0.642840     0.915452  Biso 1.000000     C
    C   1.0     0.730815     0.700593     0.019663  Biso 1.000000     C
    C   1.0     0.783192     0.800910     0.044536  Biso 1.000000     C
    C   1.0     0.747808     0.842467     0.969535  Biso 1.000000     C
    C   1.0     0.664195     0.198752     0.898341  Biso 1.000000     C
    C   1.0     0.689523     0.306368     0.958166  Biso 1.000000     C
    C   1.0     0.607701     0.342838     0.975090  Biso 1.000000     C
    C   1.0     0.631954     0.444850     0.027952  Biso 1.000000     C
    C   1.0     0.737750     0.512493     0.065393  Biso 1.000000     C
    C   1.0     0.819291     0.474156     0.049163  Biso 1.000000     C
    C   1.0     0.795657     0.372646     0.995827  Biso 1.000000     C
    C   1.0     0.587971     0.825424     0.439899  Biso 1.000000     C
    C   1.0     0.627032     0.777613     0.361394  Biso 1.000000     C
    C   1.0     0.630822     0.680223     0.338374  Biso 1.000000     C
    C   1.0     0.669982     0.639021     0.266147  Biso 1.000000     C
    C   1.0     0.705054     0.693307     0.214188  Biso 1.000000     C
    C   1.0     0.698089     0.790008     0.236450  Biso 1.000000     C
    C   1.0     0.660602     0.831734     0.309174  Biso 1.000000     C
    C   1.0     0.715808     0.185053     0.583516  Biso 1.000000     C
    C   1.0     0.839194     0.222445     0.653187  Biso 1.000000     C
    C   1.0     0.911152     0.255877     0.614784  Biso 1.000000     C
    C   1.0     0.026008     0.289031     0.679149  Biso 1.000000     C
    C   1.0     0.072256     0.293303     0.784718  Biso 1.000000     C
    C   1.0    -0.001237     0.261201     0.822613  Biso 1.000000     C
    C   1.0     0.883762     0.224556     0.757334  Biso 1.000000     C
    C   1.0     0.380301     0.167998     0.211175  Biso 1.000000     C
    C   1.0     0.342046     0.215224     0.133368  Biso 1.000000     C
    C   1.0     0.394123     0.315722     0.160312  Biso 1.000000     C
    C   1.0     0.358241     0.356839     0.084548  Biso 1.000000     C
    C   1.0     0.270039     0.299120     0.980319  Biso 1.000000     C
    C   1.0     0.217608     0.198802     0.955403  Biso 1.000000     C
    C   1.0     0.252907     0.157217     0.030392  Biso 1.000000     C
    C   1.0     0.336762     0.801028     0.101748  Biso 1.000000     C
    C   1.0     0.311475     0.693410     0.041926  Biso 1.000000     C
    C   1.0     0.393306     0.656963     0.024989  Biso 1.000000     C
    C   1.0     0.369078     0.554954     0.972119  Biso 1.000000     C
    C   1.0     0.263291     0.487283     0.934657  Biso 1.000000     C
    C   1.0     0.181748     0.525601     0.950916  Biso 1.000000     C
    C   1.0     0.205354     0.627105     0.004255  Biso 1.000000     C
    C   1.0     0.413120     0.174227     0.560176  Biso 1.000000     C
    C   1.0     0.373995     0.222017     0.638648  Biso 1.000000     C
    C   1.0     0.370149     0.319390     0.661608  Biso 1.000000     C
    C   1.0     0.330982     0.360617     0.733821  Biso 1.000000     C
    C   1.0     0.295925     0.306368     0.785818  Biso 1.000000     C
    C   1.0     0.302914     0.209674     0.763600  Biso 1.000000     C
    C   1.0     0.340435     0.167932     0.690904  Biso 1.000000     C
    O   1.0     0.320245     0.781898     0.491124  Biso 1.000000     O
    O   1.0     0.346555     0.874567     0.399183  Biso 1.000000     O
    O   1.0     0.674998     0.923915     0.822287  Biso 1.000000     O
    O   1.0     0.537649     0.778676     0.696215  Biso 1.000000     O
    O   1.0     0.739436     0.168847     0.877519  Biso 1.000000     O
    O   1.0     0.569893     0.135240     0.864877  Biso 1.000000     O
    O   1.0     0.553146     0.772318     0.482846  Biso 1.000000     O
    O   1.0     0.593223     0.915674     0.459708  Biso 1.000000     O
    O   1.0     0.514614     0.968758     0.636904  Biso 1.000000     O
    O   1.0     0.680681     0.218015     0.508808  Biso 1.000000     O
    O   1.0     0.654545     0.125428     0.600869  Biso 1.000000     O
    O   1.0     0.325499     0.075774     0.177731  Biso 1.000000     O
    O   1.0     0.463194     0.220874     0.303604  Biso 1.000000     O
    O   1.0     0.261444     0.830876     0.122494  Biso 1.000000     O
    O   1.0     0.431040     0.864572     0.135261  Biso 1.000000     O
    O   1.0     0.447693     0.227304     0.517058  Biso 1.000000     O
    O   1.0     0.408195     0.084070     0.540550  Biso 1.000000     O
    O   1.0     0.486522     0.031020     0.363015  Biso 1.000000     O
   Si   1.0     0.773856     0.651182     0.127891  Biso 1.000000    Si
   Si   1.0     0.227142     0.348580     0.872122  Biso 1.000000    Si
   Zn   1.0     0.481690     0.817347     0.572532  Biso 1.000000    Zn
   Zn   1.0     0.631638     0.030815     0.786574  Biso 1.000000    Zn
   Zn   1.0     0.519151     0.182355     0.427360  Biso 1.000000    Zn
   Zn   1.0     0.368993     0.968943     0.213479  Biso 1.000000    Zn
   Zn   1.0     0.500931    -0.000021     0.500116  Biso 1.000000    Zn
