#======================================================================

# CRYSTAL DATA

#----------------------------------------------------------------------

data_VESTA_phase_1


_pd_phase_name                         MOF
_cell_length_a                         14.22700
_cell_length_b                         14.15400
_cell_length_c                         14.31500
_cell_angle_alpha                      115.56700
_cell_angle_beta                       110.70600
_cell_angle_gamma                      100.87000
_symmetry_space_group_name_H-M         "P 1"
_symmetry_Int_Tables_number            1

loop_
_symmetry_equiv_pos_as_xyz
   "x, y, z"

loop_
   _atom_site_label
   _atom_site_occupancy
   _atom_site_fract_x
   _atom_site_fract_y
   _atom_site_fract_z
   _atom_site_adp_type
   _atom_site_B_iso_or_equiv
   _atom_site_type_symbol
    H   1.0     0.763539     0.462743     0.180444  Biso 1.000000     H
    H   1.0     0.301574     0.711894     0.734186  Biso 1.000000     H
    H   1.0     0.808607     0.519645     0.407950  Biso 1.000000     H
    H   1.0     0.702178     0.252659     0.051860  Biso 1.000000     H
    H   1.0     0.016317     0.874979     0.579111  Biso 1.000000     H
    H   1.0     0.733754     0.577843     0.546340  Biso 1.000000     H
    H   1.0     0.939878     0.930933     0.715780  Biso 1.000000     H
    H   1.0     0.106873     0.662185     0.606185  Biso 1.000000     H
    H   1.0     0.092340     0.491328     0.367480  Biso 1.000000     H
    H   1.0     0.776195     0.826026     0.191094  Biso 1.000000     H
    H   1.0     0.830200     0.763774     0.332205  Biso 1.000000     H
    H   1.0     0.198886     0.768017     0.398288  Biso 1.000000     H
    H   1.0     0.063426     0.671443     0.223965  Biso 1.000000     H
    H   1.0     0.019493     0.750361     0.097060  Biso 1.000000     H
    H   1.0     0.028761     0.282045     0.233887  Biso 1.000000     H
    H   1.0     0.393989     0.817605     0.528937  Biso 1.000000     H
    H   1.0     0.236443     0.537191     0.819546  Biso 1.000000     H
    H   1.0     0.698407     0.288040     0.265802  Biso 1.000000     H
    H   1.0     0.191373     0.480280     0.592033  Biso 1.000000     H
    H   1.0     0.297804     0.747274     0.948128  Biso 1.000000     H
    H   1.0     0.983655     0.124950     0.420877  Biso 1.000000     H
    H   1.0     0.266222     0.422073     0.453639  Biso 1.000000     H
    H   1.0     0.060088     0.068988     0.284203  Biso 1.000000     H
    H   1.0     0.893107     0.337745     0.393802  Biso 1.000000     H
    H   1.0     0.907642     0.508607     0.632507  Biso 1.000000     H
    H   1.0     0.223789     0.173911     0.808896  Biso 1.000000     H
    H   1.0     0.169777     0.236156     0.667778  Biso 1.000000     H
    H   1.0     0.801092     0.231921     0.601703  Biso 1.000000     H
    H   1.0     0.936545     0.328476     0.776015  Biso 1.000000     H
    H   1.0     0.980486     0.249566     0.902925  Biso 1.000000     H
    H   1.0     0.971223     0.717890     0.766098  Biso 1.000000     H
    H   1.0     0.605990     0.182336     0.471055  Biso 1.000000     H
    H   1.0     0.503662     0.715447     0.965680  Biso 1.000000     H
    H   1.0     0.506734     0.870311     0.971006  Biso 1.000000     H
    H   1.0     0.473420     0.955480     0.079919  Biso 1.000000     H
    H   1.0     0.610926     0.001564     0.103476  Biso 1.000000     H
    H   1.0     0.668307     0.602554     0.914235  Biso 1.000000     H
    H   1.0     0.758226     0.612063     0.819869  Biso 1.000000     H
    H   1.0     0.886510     0.604119     0.884801  Biso 1.000000     H
    H   1.0     0.778655     0.486708     0.742228  Biso 1.000000     H
    H   1.0     0.774612     0.348016     0.815393  Biso 1.000000     H
    H   1.0     0.887819     0.463839     0.956266  Biso 1.000000     H
    H   1.0     0.763272     0.394850     0.947636  Biso 1.000000     H
    H   1.0     0.692440     0.000000     0.294450  Biso 1.000000     H
    H   1.0     0.558934     0.968466     0.279753  Biso 1.000000     H
    H   1.0     0.626019     0.873778     0.285571  Biso 1.000000     H
    H   1.0     0.469267     0.594055     0.759035  Biso 1.000000     H
    H   1.0     0.359325     0.252350     0.557804  Biso 1.000000     H
    H   1.0     0.497102     0.290440     0.662084  Biso 1.000000     H
    H   1.0     0.399595     0.311665     0.712109  Biso 1.000000     H
    H   1.0     0.518509     0.538335     0.625506  Biso 1.000000     H
    H   1.0     0.568450     0.428943     0.607425  Biso 1.000000     H
    H   1.0     0.431621     0.392411     0.503349  Biso 1.000000     H
    H   1.0     0.496321     0.284492     0.034310  Biso 1.000000     H
    H   1.0     0.493247     0.129627     0.028982  Biso 1.000000     H
    H   1.0     0.526564     0.044459     0.920071  Biso 1.000000     H
    H   1.0     0.389056     0.998375     0.896509  Biso 1.000000     H
    H   1.0     0.331679     0.397378     0.085752  Biso 1.000000     H
    H   1.0     0.241758     0.387863     0.180115  Biso 1.000000     H
    H   1.0     0.113474     0.395807     0.115185  Biso 1.000000     H
    H   1.0     0.221329     0.513218     0.257758  Biso 1.000000     H
    H   1.0     0.225370     0.651911     0.184594  Biso 1.000000     H
    H   1.0     0.112162     0.536088     0.043721  Biso 1.000000     H
    H   1.0     0.236708     0.605079     0.052350  Biso 1.000000     H
    H   1.0     0.307548    -0.000922     0.705537  Biso 1.000000     H
    H   1.0     0.441056     0.031476     0.720239  Biso 1.000000     H
    H   1.0     0.373974     0.126167     0.714421  Biso 1.000000     H
    H   1.0     0.530719     0.405880     0.240953  Biso 1.000000     H
    H   1.0     0.640655     0.747584     0.442189  Biso 1.000000     H
    H   1.0     0.502878     0.709493     0.337907  Biso 1.000000     H
    H   1.0     0.600387     0.688273     0.287884  Biso 1.000000     H
    H   1.0     0.481475     0.461594     0.374478  Biso 1.000000     H
    H   1.0     0.431530     0.570982     0.392559  Biso 1.000000     H
    H   1.0     0.568359     0.607517     0.496637  Biso 1.000000     H
    C   1.0     0.822961     0.424563     0.194455  Biso 1.000000     C
    C   1.0     0.917938     0.692618     0.482254  Biso 1.000000     C
    C   1.0     0.952529     0.714430     0.291212  Biso 1.000000     C
    C   1.0     0.136214     0.708418     0.489583  Biso 1.000000     C
    C   1.0     0.831563     0.757846     0.639230  Biso 1.000000     C
    C   1.0     0.479552     0.801128     0.718828  Biso 1.000000     C
    C   1.0     0.787856     0.791068     0.724393  Biso 1.000000     C
    C   1.0     0.278319     0.722566     0.659413  Biso 1.000000     C
    C   1.0     0.360155     0.765967     0.638322  Biso 1.000000     C
    C   1.0     0.933261     0.494039     0.285579  Biso 1.000000     C
    C   1.0     0.862751     0.829829     0.049283  Biso 1.000000     C
    C   1.0     0.894648     0.792422     0.135549  Biso 1.000000     C
    C   1.0     0.837286     0.610209     0.474140  Biso 1.000000     C
    C   1.0     0.787661     0.306223     0.121135  Biso 1.000000     C
    C   1.0     0.953449     0.808660     0.570002  Biso 1.000000     C
    C   1.0     0.794589     0.642256     0.551376  Biso 1.000000     C
    C   1.0     0.911120     0.841219     0.647438  Biso 1.000000     C
    C   1.0     0.168399     0.694791     0.586565  Biso 1.000000     C
    C   1.0     0.006628     0.440543     0.297957  Biso 1.000000     C
    C   1.0     0.841662     0.795621     0.202002  Biso 1.000000     C
    C   1.0     0.871818     0.759274     0.280364  Biso 1.000000     C
    C   1.0     0.219579     0.753186     0.470292  Biso 1.000000     C
    C   1.0     0.003190     0.709296     0.221434  Biso 1.000000     C
    C   1.0     0.977344     0.750684     0.147600  Biso 1.000000     C
    C   1.0     0.861934     0.254213     0.135519  Biso 1.000000     C
    C   1.0     0.971823     0.322927     0.223637  Biso 1.000000     C
    C   1.0     0.329540     0.781466     0.543159  Biso 1.000000     C
    C   1.0     0.827606     0.126856     0.060426  Biso 1.000000     C
    C   1.0     0.177020     0.575369     0.805533  Biso 1.000000     C
    C   1.0     0.082039     0.307308     0.517731  Biso 1.000000     C
    C   1.0     0.047446     0.285499     0.708773  Biso 1.000000     C
    C   1.0     0.863764     0.291517     0.510406  Biso 1.000000     C
    C   1.0     0.168406     0.242073     0.360749  Biso 1.000000     C
    C   1.0     0.520428     0.198803     0.281154  Biso 1.000000     C
    C   1.0     0.212111     0.208853     0.275583  Biso 1.000000     C
    C   1.0     0.721662     0.277369     0.340575  Biso 1.000000     C
    C   1.0     0.639824     0.233967     0.361665  Biso 1.000000     C
    C   1.0     0.066721     0.505893     0.714408  Biso 1.000000     C
    C   1.0     0.137222     0.170076     0.950681  Biso 1.000000     C
    C   1.0     0.105330     0.207500     0.864430  Biso 1.000000     C
    C   1.0     0.162692     0.389714     0.525844  Biso 1.000000     C
    C   1.0     0.212321     0.693710     0.878853  Biso 1.000000     C
    C   1.0     0.046524     0.191265     0.429984  Biso 1.000000     C
    C   1.0     0.205385     0.357664     0.448606  Biso 1.000000     C
    C   1.0     0.088850     0.158702     0.352545  Biso 1.000000     C
    C   1.0     0.831581     0.305145     0.413425  Biso 1.000000     C
    C   1.0     0.993354     0.559390     0.702031  Biso 1.000000     C
    C   1.0     0.158322     0.204317     0.797987  Biso 1.000000     C
    C   1.0     0.128167     0.240667     0.719628  Biso 1.000000     C
    C   1.0     0.780400     0.246754     0.529700  Biso 1.000000     C
    C   1.0     0.996793     0.290637     0.778558  Biso 1.000000     C
    C   1.0     0.022639     0.249247     0.852389  Biso 1.000000     C
    C   1.0     0.138048     0.745720     0.864467  Biso 1.000000     C
    C   1.0     0.028160     0.677006     0.776349  Biso 1.000000     C
    C   1.0     0.670439     0.218473     0.456831  Biso 1.000000     C
    C   1.0     0.172378     0.873079     0.939554  Biso 1.000000     C
    C   1.0     0.543064     0.754388     0.062313  Biso 1.000000     C
    C   1.0     0.536826     0.926956     0.066389  Biso 1.000000     C
    C   1.0     0.688239     0.535368     0.925657  Biso 1.000000     C
    C   1.0     0.797087     0.554772     0.830346  Biso 1.000000     C
    C   1.0     0.797707     0.422548     0.901968  Biso 1.000000     C
    C   1.0     0.613370     0.930738     0.254102  Biso 1.000000     C
    C   1.0     0.447946     0.512954     0.755790  Biso 1.000000     C
    C   1.0     0.426146     0.313821     0.649809  Biso 1.000000     C
    C   1.0     0.495457     0.448261     0.597452  Biso 1.000000     C
    C   1.0     0.456920     0.245552     0.937677  Biso 1.000000     C
    C   1.0     0.463157     0.072983     0.933599  Biso 1.000000     C
    C   1.0     0.311746     0.464564     0.074330  Biso 1.000000     C
    C   1.0     0.202897     0.445154     0.169639  Biso 1.000000     C
    C   1.0     0.202275     0.577379     0.098019  Biso 1.000000     C
    C   1.0     0.386620     0.069205     0.745888  Biso 1.000000     C
    C   1.0     0.552039     0.486982     0.244199  Biso 1.000000     C
    C   1.0     0.573836     0.686114     0.350182  Biso 1.000000     C
    C   1.0     0.504525     0.551667     0.402534  Biso 1.000000     C
    N   1.0     0.563922     0.865471     0.124989  Biso 1.000000     N
    N   1.0     0.756417     0.504092     0.885573  Biso 1.000000     N
    N   1.0     0.456717     0.428723     0.672060  Biso 1.000000     N
    N   1.0     0.436065     0.134470     0.875001  Biso 1.000000     N
    N   1.0     0.243566     0.495836     0.114413  Biso 1.000000     N
    N   1.0     0.543266     0.571210     0.327929  Biso 1.000000     N
    O   1.0     0.708697     0.716552     0.708529  Biso 1.000000     O
    O   1.0     0.831719     0.897460     0.811016  Biso 1.000000     O
    O   1.0     0.550752     0.860492     0.710063  Biso 1.000000     O
    O   1.0     0.505171     0.771873     0.794910  Biso 1.000000     O
    O   1.0     0.765739     0.826882     0.008748  Biso 1.000000     O
    O   1.0     0.725439     0.064300     0.986689  Biso 1.000000     O
    O   1.0     0.934267     0.856591     0.021269  Biso 1.000000     O
    O   1.0     0.902231     0.089119     0.077028  Biso 1.000000     O
    O   1.0     0.291271     0.283370     0.291449  Biso 1.000000     O
    O   1.0     0.168253     0.102461     0.188962  Biso 1.000000     O
    O   1.0     0.449227     0.139446     0.289925  Biso 1.000000     O
    O   1.0     0.494811     0.228071     0.205084  Biso 1.000000     O
    O   1.0     0.234252     0.173074     0.991255  Biso 1.000000     O
    O   1.0     0.274544     0.935633     0.013304  Biso 1.000000     O
    O   1.0     0.065727     0.143360     0.978737  Biso 1.000000     O
    O   1.0     0.097753     0.910816     0.922958  Biso 1.000000     O
    O   1.0     0.565525     0.697082     0.107923  Biso 1.000000     O
    O   1.0     0.417620     0.504444     0.825415  Biso 1.000000     O
    O   1.0     0.650515     0.492951     0.972355  Biso 1.000000     O
    O   1.0     0.434458     0.302858     0.892068  Biso 1.000000     O
    O   1.0     0.582366     0.495494     0.174575  Biso 1.000000     O
    O   1.0     0.349470     0.506984     0.027635  Biso 1.000000     O
   Si   1.0     0.984404     0.653734     0.386710  Biso 1.000000    Si
   Si   1.0     0.015574     0.346196     0.613277  Biso 1.000000    Si
   Cd   1.0     0.700077     0.877823     0.874978  Biso 1.000000    Cd
   Cd   1.0     0.299901     0.122110     0.125010  Biso 1.000000    Cd
   Cd   1.0    -0.000014    -0.000018    -0.000006  Biso 1.000000    Cd
   Cd   1.0     0.499991     0.499971     0.000001  Biso 1.000000    Cd
