#======================================================================

# CRYSTAL DATA

#----------------------------------------------------------------------

data_VESTA_phase_1


_pd_phase_name                         MOF
_cell_length_a                         14.82800
_cell_length_b                         14.83400
_cell_length_c                         14.83400
_cell_angle_alpha                      109.55800
_cell_angle_beta                       109.66000
_cell_angle_gamma                      109.65000
_symmetry_space_group_name_H-M         "P 1"
_symmetry_Int_Tables_number            1

loop_
_symmetry_equiv_pos_as_xyz
   "x, y, z"

loop_
   _atom_site_label
   _atom_site_occupancy
   _atom_site_fract_x
   _atom_site_fract_y
   _atom_site_fract_z
   _atom_site_adp_type
   _atom_site_B_iso_or_equiv
   _atom_site_type_symbol
    H   1.0     0.122546     0.882401     0.464968  Biso 1.000000     H
    H   1.0     0.478752     0.928004     0.686392  Biso 1.000000     H
    H   1.0     0.419611     0.656005     0.534184  Biso 1.000000     H
    H   1.0     0.238445     0.786355     0.312149  Biso 1.000000     H
    H   1.0     0.578770     0.112772     0.237101  Biso 1.000000     H
    H   1.0     0.761094     0.075974     0.552162  Biso 1.000000     H
    H   1.0     0.879693     0.349673     0.764854  Biso 1.000000     H
    H   1.0     0.523138     0.209413     0.449532  Biso 1.000000     H
    H   1.0     0.236932     0.578960     0.112699  Biso 1.000000     H
    H   1.0     0.552079     0.761611     0.075855  Biso 1.000000     H
    H   1.0     0.765313     0.879482     0.349971  Biso 1.000000     H
    H   1.0     0.449792     0.523213     0.210386  Biso 1.000000     H
    H   1.0     0.464997     0.122615     0.882490  Biso 1.000000     H
    H   1.0     0.687378     0.478539     0.928134  Biso 1.000000     H
    H   1.0     0.533917     0.419414     0.655699  Biso 1.000000     H
    H   1.0     0.311264     0.237912     0.785493  Biso 1.000000     H
    H   1.0     0.655143     0.533308     0.418718  Biso 1.000000     H
    H   1.0     0.785837     0.311731     0.238168  Biso 1.000000     H
    H   1.0     0.882583     0.465248     0.122783  Biso 1.000000     H
    H   1.0     0.927844     0.686444     0.478410  Biso 1.000000     H
    H   1.0     0.350432     0.765177     0.879748  Biso 1.000000     H
    H   1.0     0.210197     0.450075     0.523643  Biso 1.000000     H
    H   1.0     0.113145     0.237465     0.579421  Biso 1.000000     H
    H   1.0     0.075892     0.552046     0.760999  Biso 1.000000     H
    H   1.0     0.655129     0.418717     0.533295  Biso 1.000000     H
    H   1.0     0.785762     0.238108     0.311662  Biso 1.000000     H
    H   1.0     0.882603     0.122782     0.465271  Biso 1.000000     H
    H   1.0     0.927866     0.478402     0.686531  Biso 1.000000     H
    H   1.0     0.350447     0.879735     0.765201  Biso 1.000000     H
    H   1.0     0.210263     0.523636     0.450100  Biso 1.000000     H
    H   1.0     0.113125     0.579415     0.237454  Biso 1.000000     H
    H   1.0     0.075870     0.761047     0.552030  Biso 1.000000     H
    H   1.0     0.122552     0.464980     0.882397  Biso 1.000000     H
    H   1.0     0.478737     0.686335     0.928002  Biso 1.000000     H
    H   1.0     0.419580     0.534163     0.656006  Biso 1.000000     H
    H   1.0     0.238482     0.312187     0.786390  Biso 1.000000     H
    H   1.0     0.578814     0.237114     0.112791  Biso 1.000000     H
    H   1.0     0.761040     0.552158     0.075997  Biso 1.000000     H
    H   1.0     0.879691     0.764833     0.349713  Biso 1.000000     H
    H   1.0     0.523148     0.449525     0.209369  Biso 1.000000     H
    H   1.0     0.236935     0.112695     0.578926  Biso 1.000000     H
    H   1.0     0.552113     0.075855     0.761600  Biso 1.000000     H
    H   1.0     0.765318     0.349916     0.879491  Biso 1.000000     H
    H   1.0     0.449778     0.210360     0.523207  Biso 1.000000     H
    H   1.0     0.464939     0.882478     0.122618  Biso 1.000000     H
    H   1.0     0.687344     0.928114     0.478562  Biso 1.000000     H
    H   1.0     0.533947     0.655712     0.419447  Biso 1.000000     H
    H   1.0     0.311283     0.785531     0.237939  Biso 1.000000     H
    H   1.0     0.530948     0.003225     0.627539  Biso 1.000000     H
    H   1.0     0.372740     0.899359     0.371946  Biso 1.000000     H
    H   1.0     0.626755     0.001340     0.529955  Biso 1.000000     H
    H   1.0     0.471545     0.098049     0.472499  Biso 1.000000     H
    H   1.0     0.530967     0.627561     0.003309  Biso 1.000000     H
    H   1.0     0.471527     0.472552     0.098045  Biso 1.000000     H
    H   1.0     0.626684     0.529888     0.001250  Biso 1.000000     H
    H   1.0     0.372788     0.371906     0.899369  Biso 1.000000     H
    H   1.0     0.899280     0.372285     0.372368  Biso 1.000000     H
    H   1.0     0.002211     0.626804     0.530298  Biso 1.000000     H
    H   1.0     0.098286     0.472446     0.472383  Biso 1.000000     H
    H   1.0     0.002048     0.530211     0.626731  Biso 1.000000     H
    C   1.0     0.209931     0.941485     0.524653  Biso 1.000000     C
    C   1.0     0.417848     0.683091     0.474495  Biso 1.000000     C
    C   1.0     0.580874     0.055332     0.266555  Biso 1.000000     C
    C   1.0     0.792258     0.320908     0.735383  Biso 1.000000     C
    C   1.0     0.266489     0.581021     0.055356  Biso 1.000000     C
    C   1.0     0.735680     0.792082     0.321075  Biso 1.000000     C
    C   1.0     0.524644     0.209942     0.941478  Biso 1.000000     C
    C   1.0     0.474352     0.417726     0.682927  Biso 1.000000     C
    C   1.0     0.682421     0.473811     0.417153  Biso 1.000000     C
    C   1.0     0.941612     0.524851     0.210114  Biso 1.000000     C
    C   1.0     0.321544     0.735690     0.792368  Biso 1.000000     C
    C   1.0     0.055612     0.266816     0.581300  Biso 1.000000     C
    C   1.0     0.682415     0.417151     0.473807  Biso 1.000000     C
    C   1.0     0.941623     0.210111     0.524866  Biso 1.000000     C
    C   1.0     0.321552     0.792357     0.735707  Biso 1.000000     C
    C   1.0     0.055601     0.581295     0.266813  Biso 1.000000     C
    C   1.0     0.209936     0.524663     0.941488  Biso 1.000000     C
    C   1.0     0.417824     0.474471     0.683086  Biso 1.000000     C
    C   1.0     0.580905     0.266558     0.055343  Biso 1.000000     C
    C   1.0     0.792256     0.735370     0.320941  Biso 1.000000     C
    C   1.0     0.266495     0.055351     0.580997  Biso 1.000000     C
    C   1.0     0.735684     0.321036     0.792089  Biso 1.000000     C
    C   1.0     0.524600     0.941467     0.209947  Biso 1.000000     C
    C   1.0     0.474374     0.682937     0.417754  Biso 1.000000     C
    C   1.0     0.385723     0.000570     0.629270  Biso 1.000000     C
    C   1.0     0.492214     0.001991     0.679087  Biso 1.000000     C
    C   1.0     0.370082     0.752871     0.370035  Biso 1.000000     C
    C   1.0     0.320287     0.808448     0.320171  Biso 1.000000     C
    C   1.0     0.629196     0.000311     0.385557  Biso 1.000000     C
    C   1.0     0.678991     0.001516     0.491887  Biso 1.000000     C
    C   1.0     0.616437     0.247096     0.616448  Biso 1.000000     C
    C   1.0     0.509912     0.188696     0.510112  Biso 1.000000     C
    C   1.0     0.385712     0.629274     0.000581  Biso 1.000000     C
    C   1.0     0.492200     0.679082     0.002013  Biso 1.000000     C
    C   1.0     0.616435     0.616449     0.247102  Biso 1.000000     C
    C   1.0     0.509913     0.510125     0.188695  Biso 1.000000     C
    C   1.0     0.629193     0.385542     0.000306  Biso 1.000000     C
    C   1.0     0.678964     0.491860     0.001501  Biso 1.000000     C
    C   1.0     0.370074     0.370010     0.752859  Biso 1.000000     C
    C   1.0     0.320306     0.320162     0.808451  Biso 1.000000     C
    C   1.0     0.752560     0.369762     0.369774  Biso 1.000000     C
    C   1.0     0.808282     0.320127     0.320149  Biso 1.000000     C
    C   1.0     0.000466     0.629188     0.385658  Biso 1.000000     C
    C   1.0     0.001671     0.678753     0.491922  Biso 1.000000     C
    C   1.0     0.247527     0.616746     0.616749  Biso 1.000000     C
    C   1.0     0.189025     0.510416     0.510409  Biso 1.000000     C
    C   1.0     0.000453     0.385646     0.629187  Biso 1.000000     C
    C   1.0     0.001638     0.491900     0.678745  Biso 1.000000     C
    N   1.0     0.285370     0.907044     0.555585  Biso 1.000000     N
    N   1.0     0.351715     0.726983     0.443939  Biso 1.000000     N
    N   1.0     0.647211     0.092358     0.377465  Biso 1.000000     N
    N   1.0     0.716789     0.274512     0.624447  Biso 1.000000     N
    N   1.0     0.377505     0.647373     0.092539  Biso 1.000000     N
    N   1.0     0.624634     0.716820     0.274759  Biso 1.000000     N
    N   1.0     0.555591     0.285226     0.906881  Biso 1.000000     N
    N   1.0     0.443785     0.351498     0.726728  Biso 1.000000     N
    N   1.0     0.726423     0.443445     0.351171  Biso 1.000000     N
    N   1.0     0.906951     0.555551     0.285306  Biso 1.000000     N
    N   1.0     0.275090     0.624777     0.717083  Biso 1.000000     N
    N   1.0     0.092623     0.377671     0.647477  Biso 1.000000     N
    N   1.0     0.726411     0.351157     0.443445  Biso 1.000000     N
    N   1.0     0.906948     0.285293     0.555563  Biso 1.000000     N
    N   1.0     0.275104     0.717080     0.624788  Biso 1.000000     N
    N   1.0     0.092626     0.647481     0.377674  Biso 1.000000     N
    N   1.0     0.285371     0.555583     0.907052  Biso 1.000000     N
    N   1.0     0.351714     0.443931     0.726992  Biso 1.000000     N
    N   1.0     0.647220     0.377461     0.092363  Biso 1.000000     N
    N   1.0     0.716790     0.624442     0.274535  Biso 1.000000     N
    N   1.0     0.377514     0.092527     0.647357  Biso 1.000000     N
    N   1.0     0.624634     0.274722     0.716816  Biso 1.000000     N
    N   1.0     0.555568     0.906879     0.285243  Biso 1.000000     N
    N   1.0     0.443788     0.726731     0.351517  Biso 1.000000     N
   Zn   1.0     0.251421     0.749718     0.500695  Biso 1.000000    Zn
   Zn   1.0     0.749330     0.250997     0.500383  Biso 1.000000    Zn
   Zn   1.0     0.500547     0.749473     0.251221  Biso 1.000000    Zn
   Zn   1.0     0.500552     0.251196     0.749462  Biso 1.000000    Zn
   Zn   1.0     0.749338     0.500378     0.251010  Biso 1.000000    Zn
   Zn   1.0     0.251413     0.500687     0.749718  Biso 1.000000    Zn
