#======================================================================

# CRYSTAL DATA

#----------------------------------------------------------------------

data_VESTA_phase_1


_pd_phase_name                         MOF
_cell_length_a                         14.81600
_cell_length_b                         14.82200
_cell_length_c                         14.80900
_cell_angle_alpha                      109.43300
_cell_angle_beta                       109.37000
_cell_angle_gamma                      109.34800
_symmetry_space_group_name_H-M         "P 1"
_symmetry_Int_Tables_number            1

loop_
_symmetry_equiv_pos_as_xyz
   "x, y, z"

loop_
   _atom_site_label
   _atom_site_occupancy
   _atom_site_fract_x
   _atom_site_fract_y
   _atom_site_fract_z
   _atom_site_adp_type
   _atom_site_B_iso_or_equiv
   _atom_site_type_symbol
    H   1.0     0.659799     0.536049     0.424027  Biso 1.000000     H
    H   1.0     0.115564     0.237305     0.592818  Biso 1.000000     H
    H   1.0     0.885341     0.465541     0.125917  Biso 1.000000     H
    H   1.0     0.342759     0.760528     0.874934  Biso 1.000000     H
    H   1.0     0.124784     0.886931     0.466922  Biso 1.000000     H
    H   1.0     0.875945     0.348805     0.763909  Biso 1.000000     H
    H   1.0     0.415380     0.652704     0.528336  Biso 1.000000     H
    H   1.0     0.592626     0.117587     0.239223  Biso 1.000000     H
    H   1.0     0.239158     0.593571     0.117339  Biso 1.000000     H
    H   1.0     0.525104     0.410443     0.649385  Biso 1.000000     H
    H   1.0     0.761449     0.875448     0.342904  Biso 1.000000     H
    H   1.0     0.475869     0.122854     0.888618  Biso 1.000000     H
    H   1.0     0.238481     0.115735     0.585549  Biso 1.000000     H
    H   1.0     0.531385     0.654996     0.414616  Biso 1.000000     H
    H   1.0     0.760143     0.348642     0.877980  Biso 1.000000     H
    H   1.0     0.479609     0.888836     0.122745  Biso 1.000000     H
    H   1.0     0.661197     0.420928     0.538633  Biso 1.000000     H
    H   1.0     0.114241     0.581610     0.237789  Biso 1.000000     H
    H   1.0     0.886644     0.122145     0.479047  Biso 1.000000     H
    H   1.0     0.344221     0.875678     0.760463  Biso 1.000000     H
    H   1.0     0.122764     0.477958     0.888248  Biso 1.000000     H
    H   1.0     0.876332     0.760483     0.344682  Biso 1.000000     H
    H   1.0     0.411450     0.526524     0.650252  Biso 1.000000     H
    H   1.0     0.746695     0.261333     0.225549  Biso 1.000000     H
    H   1.0     0.827073     0.266919     0.349430  Biso 1.000000     H
    H   1.0     0.878398     0.377828     0.324670  Biso 1.000000     H
    H   1.0     0.926422     0.479088     0.685773  Biso 1.000000     H
    H   1.0    -0.005744     0.523496     0.617863  Biso 1.000000     H
    H   1.0     0.073270     0.553415     0.754274  Biso 1.000000     H
    H   1.0     0.919589     0.665861     0.477767  Biso 1.000000     H
    H   1.0     0.057861     0.772474     0.539982  Biso 1.000000     H
    H   1.0     0.032138     0.649844     0.545438  Biso 1.000000     H
    H   1.0     0.204349     0.447222     0.521342  Biso 1.000000     H
    H   1.0     0.208636     0.521274     0.448045  Biso 1.000000     H
    H   1.0     0.095267     0.473060     0.469247  Biso 1.000000     H
    H   1.0     0.531648     0.006337     0.630302  Biso 1.000000     H
    H   1.0     0.476179     0.922802     0.681272  Biso 1.000000     H
    H   1.0     0.548395     0.069296     0.763596  Biso 1.000000     H
    H   1.0     0.478838     0.096111     0.466603  Biso 1.000000     H
    H   1.0     0.519931     0.215004     0.452890  Biso 1.000000     H
    H   1.0     0.444229     0.196603     0.523204  Biso 1.000000     H
    H   1.0     0.231970     0.761504     0.266618  Biso 1.000000     H
    H   1.0     0.358405     0.837977     0.274553  Biso 1.000000     H
    H   1.0     0.335047     0.888778     0.386819  Biso 1.000000     H
    H   1.0     0.750942     0.076327     0.555893  Biso 1.000000     H
    H   1.0     0.693134     0.930630     0.480277  Biso 1.000000     H
    H   1.0     0.615376    -0.013449     0.520232  Biso 1.000000     H
    H   1.0     0.480074     0.695847     0.931352  Biso 1.000000     H
    H   1.0     0.518417     0.614646     0.982680  Biso 1.000000     H
    H   1.0     0.555597     0.749573     0.076357  Biso 1.000000     H
    H   1.0     0.308443     0.240146     0.791779  Biso 1.000000     H
    H   1.0     0.246040     0.324594     0.803774  Biso 1.000000     H
    H   1.0     0.381377     0.374271     0.906918  Biso 1.000000     H
    H   1.0     0.523820     0.447801     0.206569  Biso 1.000000     H
    H   1.0     0.469198     0.474176     0.098391  Biso 1.000000     H
    H   1.0     0.451118     0.522357     0.213923  Biso 1.000000     H
    H   1.0     0.636092     0.479154     0.917682  Biso 1.000000     H
    H   1.0     0.766413     0.526754     0.029410  Biso 1.000000     H
    H   1.0     0.668353     0.554543     0.056686  Biso 1.000000     H
    C   1.0     0.686052     0.475458     0.420983  Biso 1.000000     C
    C   1.0     0.057222     0.266453     0.591325  Biso 1.000000     C
    C   1.0     0.943627     0.526443     0.212098  Biso 1.000000     C
    C   1.0     0.315296     0.731823     0.788054  Biso 1.000000     C
    C   1.0     0.211156     0.944360     0.527474  Biso 1.000000     C
    C   1.0     0.788775     0.319536     0.734499  Biso 1.000000     C
    C   1.0     0.414933     0.681825     0.470102  Biso 1.000000     C
    C   1.0     0.591294     0.058990     0.267917  Biso 1.000000     C
    C   1.0     0.267661     0.591568     0.058453  Biso 1.000000     C
    C   1.0     0.467885     0.411570     0.679614  Biso 1.000000     C
    C   1.0     0.732725     0.788726     0.315883  Biso 1.000000     C
    C   1.0     0.533375     0.209823     0.945417  Biso 1.000000     C
    C   1.0     0.267400     0.057493     0.585961  Biso 1.000000     C
    C   1.0     0.472264     0.682919     0.413848  Biso 1.000000     C
    C   1.0     0.731552     0.319318     0.790862  Biso 1.000000     C
    C   1.0     0.535434     0.945854     0.210286  Biso 1.000000     C
    C   1.0     0.686554     0.418417     0.477464  Biso 1.000000     C
    C   1.0     0.056799     0.583838     0.267465  Biso 1.000000     C
    C   1.0     0.944039     0.209504     0.535048  Biso 1.000000     C
    C   1.0     0.315949     0.788727     0.731442  Biso 1.000000     C
    C   1.0     0.210112     0.534552     0.945224  Biso 1.000000     C
    C   1.0     0.789476     0.731935     0.316641  Biso 1.000000     C
    C   1.0     0.411610     0.468849     0.679969  Biso 1.000000     C
    C   1.0     0.593537     0.269619     0.057976  Biso 1.000000     C
    C   1.0     0.804155     0.315942     0.314842  Biso 1.000000     C
    C   1.0     0.754273     0.369702     0.370662  Biso 1.000000     C
    C   1.0    -0.001618     0.490575     0.674809  Biso 1.000000     C
    C   1.0    -0.000595     0.384866     0.630863  Biso 1.000000     C
    C   1.0     0.002560     0.682787     0.492598  Biso 1.000000     C
    C   1.0     0.001325     0.631907     0.386443  Biso 1.000000     C
    C   1.0     0.185341     0.508647     0.507700  Biso 1.000000     C
    C   1.0     0.243266     0.614177     0.613394  Biso 1.000000     C
    C   1.0     0.490535    -0.000475     0.679432  Biso 1.000000     C
    C   1.0     0.385037     0.000008     0.631397  Biso 1.000000     C
    C   1.0     0.508875     0.185290     0.509272  Biso 1.000000     C
    C   1.0     0.613979     0.244097     0.615524  Biso 1.000000     C
    C   1.0     0.321648     0.814149     0.321825  Biso 1.000000     C
    C   1.0     0.371347     0.757547     0.370454  Biso 1.000000     C
    C   1.0     0.675292    -0.001487     0.490833  Biso 1.000000     C
    C   1.0     0.631175     0.000332     0.385548  Biso 1.000000     C
    C   1.0     0.490128     0.675329    -0.002531  Biso 1.000000     C
    C   1.0     0.385018     0.630903    -0.000557  Biso 1.000000     C
    C   1.0     0.323469     0.324637     0.817419  Biso 1.000000     C
    C   1.0     0.368987     0.370083     0.756682  Biso 1.000000     C
    C   1.0     0.509531     0.509437     0.188564  Biso 1.000000     C
    C   1.0     0.614966     0.614654     0.245184  Biso 1.000000     C
    C   1.0     0.677677     0.492051     0.001073  Biso 1.000000     C
    C   1.0     0.630199     0.386470     0.001303  Biso 1.000000     C
    N   1.0     0.728688     0.444365     0.353404  Biso 1.000000     N
    N   1.0     0.092019     0.377207     0.652087  Biso 1.000000     N
    N   1.0     0.908726     0.557204     0.287396  Biso 1.000000     N
    N   1.0     0.269725     0.621616     0.713385  Biso 1.000000     N
    N   1.0     0.285536     0.908179     0.556658  Biso 1.000000     N
    N   1.0     0.714385     0.272365     0.623820  Biso 1.000000     N
    N   1.0     0.350988     0.728716     0.442338  Biso 1.000000     N
    N   1.0     0.651993     0.093221     0.378597  Biso 1.000000     N
    N   1.0     0.378135     0.652597     0.092574  Biso 1.000000     N
    N   1.0     0.440577     0.348922     0.727833  Biso 1.000000     N
    N   1.0     0.622606     0.714546     0.271075  Biso 1.000000     N
    N   1.0     0.558179     0.286202     0.909703  Biso 1.000000     N
    N   1.0     0.377188     0.092482     0.651881  Biso 1.000000     N
    N   1.0     0.444346     0.730491     0.350664  Biso 1.000000     N
    N   1.0     0.621172     0.271892     0.715588  Biso 1.000000     N
    N   1.0     0.560992     0.908924     0.284714  Biso 1.000000     N
    N   1.0     0.729486     0.351458     0.445345  Biso 1.000000     N
    N   1.0     0.093048     0.650724     0.377465  Biso 1.000000     N
    N   1.0     0.907682     0.284463     0.560411  Biso 1.000000     N
    N   1.0     0.270782     0.714344     0.621165  Biso 1.000000     N
    N   1.0     0.284386     0.559818     0.908100  Biso 1.000000     N
    N   1.0     0.714982     0.622013     0.272244  Biso 1.000000     N
    N   1.0     0.348896     0.442230     0.728331  Biso 1.000000     N
    N   1.0     0.653748     0.378666     0.094844  Biso 1.000000     N
   Zn   1.0     0.751667     0.500857     0.253215  Biso 1.000000    Zn
   Zn   1.0     0.248606     0.500256     0.750234  Biso 1.000000    Zn
   Zn   1.0     0.250202     0.750511     0.499188  Biso 1.000000    Zn
   Zn   1.0     0.750219     0.249882     0.501588  Biso 1.000000    Zn
   Zn   1.0     0.501116     0.751397     0.249326  Biso 1.000000    Zn
   Zn   1.0     0.498922     0.249480     0.751031  Biso 1.000000    Zn
