#======================================================================

# CRYSTAL DATA

#----------------------------------------------------------------------

data_VESTA_phase_1


_pd_phase_name                         MOF
_cell_length_a                         14.84200
_cell_length_b                         14.84300
_cell_length_c                         14.84300
_cell_angle_alpha                      109.41800
_cell_angle_beta                       109.38300
_cell_angle_gamma                      109.38400
_symmetry_space_group_name_H-M         "P 1"
_symmetry_Int_Tables_number            1

loop_
_symmetry_equiv_pos_as_xyz
   "x, y, z"

loop_
   _atom_site_label
   _atom_site_occupancy
   _atom_site_fract_x
   _atom_site_fract_y
   _atom_site_fract_z
   _atom_site_adp_type
   _atom_site_B_iso_or_equiv
   _atom_site_type_symbol
    H   1.0     0.875181     0.343707     0.760280  Biso 1.000000     H
    H   1.0     0.513442     0.140432     0.439382  Biso 1.000000     H
    H   1.0     0.585593     0.116111     0.240036  Biso 1.000000     H
    H   1.0     0.701391     0.072757     0.560381  Biso 1.000000     H
    H   1.0     0.415149     0.655025     0.529864  Biso 1.000000     H
    H   1.0     0.297639     0.859782     0.371724  Biso 1.000000     H
    H   1.0     0.124832     0.886734     0.470357  Biso 1.000000     H
    H   1.0     0.486239     0.924799     0.627669  Biso 1.000000     H
    H   1.0     0.530488     0.415073     0.655208  Biso 1.000000     H
    H   1.0     0.371854     0.297754     0.859720  Biso 1.000000     H
    H   1.0     0.470455     0.124731     0.886779  Biso 1.000000     H
    H   1.0     0.627721     0.486353     0.925285  Biso 1.000000     H
    H   1.0     0.759932     0.875052     0.343372  Biso 1.000000     H
    H   1.0     0.439086     0.513399     0.140555  Biso 1.000000     H
    H   1.0     0.239730     0.585469     0.115482  Biso 1.000000     H
    H   1.0     0.560398     0.701464     0.072603  Biso 1.000000     H
    H   1.0     0.115854     0.239733     0.585241  Biso 1.000000     H
    H   1.0     0.073033     0.560485     0.701483  Biso 1.000000     H
    H   1.0     0.343715     0.760050     0.874809  Biso 1.000000     H
    H   1.0     0.140478     0.439114     0.512988  Biso 1.000000     H
    H   1.0     0.886222     0.470193     0.124744  Biso 1.000000     H
    H   1.0     0.925020     0.627949     0.486485  Biso 1.000000     H
    H   1.0     0.654964     0.530182     0.415485  Biso 1.000000     H
    H   1.0     0.859941     0.372113     0.298063  Biso 1.000000     H
    H   1.0     0.114864     0.584544     0.239540  Biso 1.000000     H
    H   1.0     0.071776     0.700980     0.559949  Biso 1.000000     H
    H   1.0     0.342743     0.874383     0.759876  Biso 1.000000     H
    H   1.0     0.140619     0.512731     0.439433  Biso 1.000000     H
    H   1.0     0.887214     0.125285     0.470187  Biso 1.000000     H
    H   1.0     0.926278     0.486987     0.628308  Biso 1.000000     H
    H   1.0     0.655878     0.416043     0.530634  Biso 1.000000     H
    H   1.0     0.859782     0.298320     0.371457  Biso 1.000000     H
    H   1.0     0.874359     0.760151     0.343038  Biso 1.000000     H
    H   1.0     0.512663     0.439772     0.140485  Biso 1.000000     H
    H   1.0     0.584658     0.239852     0.115431  Biso 1.000000     H
    H   1.0     0.700996     0.559943     0.072034  Biso 1.000000     H
    H   1.0     0.416198     0.530126     0.655612  Biso 1.000000     H
    H   1.0     0.298389     0.371499     0.859767  Biso 1.000000     H
    H   1.0     0.125344     0.470110     0.886832  Biso 1.000000     H
    H   1.0     0.486918     0.628397     0.925855  Biso 1.000000     H
    H   1.0     0.530264     0.655824     0.415642  Biso 1.000000     H
    H   1.0     0.371064     0.859623     0.297940  Biso 1.000000     H
    H   1.0     0.470306     0.887442     0.125277  Biso 1.000000     H
    H   1.0     0.628185     0.925990     0.486682  Biso 1.000000     H
    H   1.0     0.760242     0.342871     0.874666  Biso 1.000000     H
    H   1.0     0.439882     0.140536     0.513031  Biso 1.000000     H
    H   1.0     0.240021     0.115405     0.584949  Biso 1.000000     H
    H   1.0     0.559894     0.071568     0.700939  Biso 1.000000     H
    H   1.0     0.492654     0.253174     0.492151  Biso 1.000000     H
    H   1.0     0.761471    -0.000544     0.507293  Biso 1.000000     H
    H   1.0     0.237960     0.747238     0.238594  Biso 1.000000     H
    H   1.0     0.506816    -0.001751     0.760975  Biso 1.000000     H
    H   1.0     0.238782     0.238343     0.747286  Biso 1.000000     H
    H   1.0     0.760970     0.506843    -0.001416  Biso 1.000000     H
    H   1.0     0.491870     0.492576     0.253225  Biso 1.000000     H
    H   1.0     0.507484     0.761683    -0.000562  Biso 1.000000     H
    H   1.0    -0.000290     0.507523     0.761577  Biso 1.000000     H
    H   1.0     0.253240     0.491809     0.492237  Biso 1.000000     H
    H   1.0    -0.001425     0.761216     0.507078  Biso 1.000000     H
    H   1.0     0.747425     0.238984     0.238326  Biso 1.000000     H
    C   1.0     0.788622     0.316840     0.731666  Biso 1.000000     C
    C   1.0     0.587007     0.057837     0.268435  Biso 1.000000     C
    C   1.0     0.413426     0.682151     0.470231  Biso 1.000000     C
    C   1.0     0.211351     0.944024     0.529852  Biso 1.000000     C
    C   1.0     0.470780     0.413406     0.682241  Biso 1.000000     C
    C   1.0     0.529871     0.211270     0.944143  Biso 1.000000     C
    C   1.0     0.731332     0.788514     0.316659  Biso 1.000000     C
    C   1.0     0.268258     0.586926     0.057290  Biso 1.000000     C
    C   1.0     0.057678     0.268272     0.586773  Biso 1.000000     C
    C   1.0     0.316846     0.731417     0.788239  Biso 1.000000     C
    C   1.0     0.943645     0.529717     0.211246  Biso 1.000000     C
    C   1.0     0.682155     0.470581     0.413787  Biso 1.000000     C
    C   1.0     0.056622     0.586223     0.267951  Biso 1.000000     C
    C   1.0     0.316340     0.787917     0.731444  Biso 1.000000     C
    C   1.0     0.944701     0.211735     0.529882  Biso 1.000000     C
    C   1.0     0.682630     0.414203     0.470708  Biso 1.000000     C
    C   1.0     0.787877     0.731734     0.316477  Biso 1.000000     C
    C   1.0     0.586303     0.268139     0.057117  Biso 1.000000     C
    C   1.0     0.414332     0.470286     0.682471  Biso 1.000000     C
    C   1.0     0.211758     0.529884     0.944318  Biso 1.000000     C
    C   1.0     0.470323     0.682556     0.413799  Biso 1.000000     C
    C   1.0     0.530000     0.944844     0.211741  Biso 1.000000     C
    C   1.0     0.731827     0.316410     0.788194  Biso 1.000000     C
    C   1.0     0.268251     0.057019     0.586483  Biso 1.000000     C
    C   1.0     0.614393     0.244862     0.613947  Biso 1.000000     C
    C   1.0     0.509712     0.192117     0.509238  Biso 1.000000     C
    C   1.0     0.631946     0.000286     0.385812  Biso 1.000000     C
    C   1.0     0.683462    -0.000430     0.490401  Biso 1.000000     C
    C   1.0     0.367756     0.754794     0.368151  Biso 1.000000     C
    C   1.0     0.315853     0.808021     0.316360  Biso 1.000000     C
    C   1.0     0.385380    -0.000831     0.631498  Biso 1.000000     C
    C   1.0     0.489937    -0.001620     0.682980  Biso 1.000000     C
    C   1.0     0.368551     0.367923     0.754833  Biso 1.000000     C
    C   1.0     0.316649     0.316136     0.808065  Biso 1.000000     C
    C   1.0     0.631469     0.385381    -0.000544  Biso 1.000000     C
    C   1.0     0.682999     0.489989    -0.001224  Biso 1.000000     C
    C   1.0     0.613632     0.614307     0.244869  Biso 1.000000     C
    C   1.0     0.508924     0.509634     0.192154  Biso 1.000000     C
    C   1.0     0.385844     0.632002    -0.000045  Biso 1.000000     C
    C   1.0     0.490526     0.683609    -0.000588  Biso 1.000000     C
    C   1.0     0.000361     0.385901     0.631928  Biso 1.000000     C
    C   1.0    -0.000198     0.490599     0.683548  Biso 1.000000     C
    C   1.0     0.244897     0.613669     0.613971  Biso 1.000000     C
    C   1.0     0.192176     0.508937     0.509271  Biso 1.000000     C
    C   1.0    -0.000870     0.631523     0.385400  Biso 1.000000     C
    C   1.0    -0.001429     0.683139     0.490099  Biso 1.000000     C
    C   1.0     0.754935     0.368547     0.368155  Biso 1.000000     C
    C   1.0     0.808194     0.316748     0.316247  Biso 1.000000     C
    N   1.0     0.714359     0.271857     0.621614  Biso 1.000000     N
    N   1.0     0.651627     0.092765     0.378371  Biso 1.000000     N
    N   1.0     0.348445     0.727563     0.441099  Biso 1.000000     N
    N   1.0     0.285421     0.907572     0.558556  Biso 1.000000     N
    N   1.0     0.441581     0.348576     0.727754  Biso 1.000000     N
    N   1.0     0.558668     0.285417     0.907814  Biso 1.000000     N
    N   1.0     0.621279     0.714248     0.271626  Biso 1.000000     N
    N   1.0     0.378209     0.651621     0.092347  Biso 1.000000     N
    N   1.0     0.092733     0.378263     0.651416  Biso 1.000000     N
    N   1.0     0.271916     0.621361     0.713946  Biso 1.000000     N
    N   1.0     0.907429     0.558609     0.285516  Biso 1.000000     N
    N   1.0     0.727622     0.441457     0.348838  Biso 1.000000     N
    N   1.0     0.091559     0.650722     0.377935  Biso 1.000000     N
    N   1.0     0.271100     0.713445     0.621379  Biso 1.000000     N
    N   1.0     0.908604     0.286127     0.558690  Biso 1.000000     N
    N   1.0     0.728402     0.349586     0.441594  Biso 1.000000     N
    N   1.0     0.713435     0.621705     0.271332  Biso 1.000000     N
    N   1.0     0.650685     0.378097     0.091965  Biso 1.000000     N
    N   1.0     0.349574     0.441259     0.728115  Biso 1.000000     N
    N   1.0     0.286123     0.558645     0.908203  Biso 1.000000     N
    N   1.0     0.441190     0.728254     0.349149  Biso 1.000000     N
    N   1.0     0.558643     0.908588     0.285983  Biso 1.000000     N
    N   1.0     0.621783     0.271131     0.713738  Biso 1.000000     N
    N   1.0     0.378162     0.091747     0.650891  Biso 1.000000     N
   Zn   1.0     0.750953     0.250097     0.500062  Biso 1.000000    Zn
   Zn   1.0     0.248764     0.749630     0.499607  Biso 1.000000    Zn
   Zn   1.0     0.500031     0.248899     0.749958  Biso 1.000000    Zn
   Zn   1.0     0.499717     0.750835     0.249684  Biso 1.000000    Zn
   Zn   1.0     0.250090     0.499811     0.750498  Biso 1.000000    Zn
   Zn   1.0     0.749593     0.499929     0.249150  Biso 1.000000    Zn
