#======================================================================

# CRYSTAL DATA

#----------------------------------------------------------------------

data_VESTA_phase_1


_pd_phase_name                         MOF
_cell_length_a                         5.61500
_cell_length_b                         18.96100
_cell_length_c                         23.88800
_cell_angle_alpha                      90.06800
_cell_angle_beta                       90.12700
_cell_angle_gamma                      89.57000
_symmetry_space_group_name_H-M         "P 1"
_symmetry_Int_Tables_number            1

loop_
_symmetry_equiv_pos_as_xyz
   "x, y, z"

loop_
   _atom_site_label
   _atom_site_occupancy
   _atom_site_fract_x
   _atom_site_fract_y
   _atom_site_fract_z
   _atom_site_adp_type
   _atom_site_B_iso_or_equiv
   _atom_site_type_symbol
    H   1.0     0.010151     0.450994     0.483490  Biso 1.000000     H
    H   1.0     0.950342     0.608357     0.354513  Biso 1.000000     H
    H   1.0     0.065818     0.391109     0.309120  Biso 1.000000     H
    H   1.0     0.000000     0.610168     0.193894  Biso 1.000000     H
    H   1.0     0.000000     0.551746     0.019259  Biso 1.000000     H
    H   1.0    -0.054085     0.393993     0.147549  Biso 1.000000     H
    H   1.0     0.511451     0.552279     0.519017  Biso 1.000000     H
    H   1.0     0.452464     0.395071     0.647850  Biso 1.000000     H
    H   1.0     0.569963     0.611698     0.693452  Biso 1.000000     H
    H   1.0     0.565615     0.392102     0.808806  Biso 1.000000     H
    H   1.0     0.506347     0.451117     0.983311  Biso 1.000000     H
    H   1.0     0.454874     0.609350     0.854822  Biso 1.000000     H
    H   1.0     0.010562     0.051605     0.983290  Biso 1.000000     H
    H   1.0     0.946802     0.893854     0.854596  Biso 1.000000     H
    H   1.0     0.068872     0.110042     0.808856  Biso 1.000000     H
    H   1.0     0.000000     0.891199     0.693103  Biso 1.000000     H
    H   1.0     0.000000     0.951204     0.518836  Biso 1.000000     H
    H   1.0    -0.048074     0.108632     0.648120  Biso 1.000000     H
    H   1.0     0.508051     0.951226     0.019113  Biso 1.000000     H
    H   1.0     0.458559     0.109581     0.147815  Biso 1.000000     H
    H   1.0     0.563821     0.892122     0.193619  Biso 1.000000     H
    H   1.0     0.569850     0.111733     0.309363  Biso 1.000000     H
    H   1.0     0.510943     0.052314     0.483610  Biso 1.000000     H
    H   1.0     0.446733     0.895328     0.354373  Biso 1.000000     H
    C   1.0     0.102175     0.340182     0.415109  Biso 1.000000     C
    C   1.0     0.035028     0.412927     0.397893  Biso 1.000000     C
    C   1.0     0.002157     0.464693     0.439272  Biso 1.000000     C
    C   1.0     0.978472     0.535389     0.423590  Biso 1.000000     C
    C   1.0     0.988933     0.591895     0.467040  Biso 1.000000     C
    C   1.0     0.968921     0.553297     0.366851  Biso 1.000000     C
    C   1.0    -0.009738     0.501095     0.325561  Biso 1.000000     C
    C   1.0     0.032620     0.430762     0.341233  Biso 1.000000     C
    C   1.0    -0.010851     0.500796     0.176975  Biso 1.000000     C
    C   1.0     0.000000     0.570952     0.161598  Biso 1.000000     C
    C   1.0     0.000000     0.589167     0.105023  Biso 1.000000     C
    C   1.0     0.000000     0.661676     0.088224  Biso 1.000000     C
    C   1.0     0.001260     0.537865     0.063419  Biso 1.000000     C
    C   1.0    -0.024244     0.467244     0.078813  Biso 1.000000     C
    C   1.0    -0.015498     0.410998     0.035123  Biso 1.000000     C
    C   1.0    -0.034029     0.449008     0.135472  Biso 1.000000     C
    C   1.0     0.603159     0.662732     0.587449  Biso 1.000000     C
    C   1.0     0.537820     0.590140     0.604652  Biso 1.000000     C
    C   1.0     0.504160     0.538563     0.563225  Biso 1.000000     C
    C   1.0     0.480386     0.467970     0.578834  Biso 1.000000     C
    C   1.0     0.489569     0.411436     0.535354  Biso 1.000000     C
    C   1.0     0.471474     0.450047     0.635563  Biso 1.000000     C
    C   1.0     0.493932     0.502070     0.676905  Biso 1.000000     C
    C   1.0     0.536320     0.572231     0.661301  Biso 1.000000     C
    C   1.0     0.492938     0.502167     0.825526  Biso 1.000000     C
    C   1.0     0.532713     0.431642     0.841023  Biso 1.000000     C
    C   1.0     0.532829     0.413442     0.897614  Biso 1.000000     C
    C   1.0     0.597381     0.340388     0.914599  Biso 1.000000     C
    C   1.0     0.500321     0.465068     0.939126  Biso 1.000000     C
    C   1.0     0.479022     0.535913     0.923658  Biso 1.000000     C
    C   1.0     0.489256     0.592177     0.967336  Biso 1.000000     C
    C   1.0     0.471717     0.554176     0.866969  Biso 1.000000     C
    C   1.0     0.104292     0.161582     0.914501  Biso 1.000000     C
    C   1.0     0.036387     0.089025     0.897622  Biso 1.000000     C
    C   1.0     0.002115     0.000000     0.939089  Biso 1.000000     C
    C   1.0     0.976493     0.967099     0.923517  Biso 1.000000     C
    C   1.0     0.984621     0.910867     0.967130  Biso 1.000000     C
    C   1.0     0.966956     0.948865     0.866804  Biso 1.000000     C
    C   1.0    -0.009560     0.000000     0.825436  Biso 1.000000     C
    C   1.0     0.034258     0.070816     0.841018  Biso 1.000000     C
    C   1.0    -0.009340     0.001309     0.676859  Biso 1.000000     C
    C   1.0     0.000000     0.930911     0.661059  Biso 1.000000     C
    C   1.0     0.000000     0.913092     0.604373  Biso 1.000000     C
    C   1.0     0.000000     0.840217     0.587130  Biso 1.000000     C
    C   1.0     0.000755     0.964897     0.563080  Biso 1.000000     C
    C   1.0    -0.021642     0.035647     0.578888  Biso 1.000000     C
    C   1.0    -0.010932     0.092076     0.535488  Biso 1.000000     C
    C   1.0    -0.030330     0.053559     0.635667  Biso 1.000000     C
    C   1.0     0.597139     0.840406     0.087792  Biso 1.000000     C
    C   1.0     0.533036     0.913521     0.104789  Biso 1.000000     C
    C   1.0     0.501898    -0.034791     0.063315  Biso 1.000000     C
    C   1.0     0.481983     0.036093     0.078882  Biso 1.000000     C
    C   1.0     0.493674     0.092294     0.035300  Biso 1.000000     C
    C   1.0     0.474333     0.054379     0.135590  Biso 1.000000     C
    C   1.0     0.493443     0.002324     0.176971  Biso 1.000000     C
    C   1.0     0.532227     0.931713     0.161414  Biso 1.000000     C
    C   1.0     0.491450     0.000000     0.325597  Biso 1.000000     C
    C   1.0     0.535464     0.072309     0.341393  Biso 1.000000     C
    C   1.0     0.537461     0.090198     0.398083  Biso 1.000000     C
    C   1.0     0.603398     0.162744     0.415463  Biso 1.000000     C
    C   1.0     0.502960     0.038656     0.439365  Biso 1.000000     C
    C   1.0     0.477083     0.968111     0.423584  Biso 1.000000     C
    C   1.0     0.484892     0.911557     0.466968  Biso 1.000000     C
    C   1.0     0.467427     0.950241     0.366805  Biso 1.000000     C
    N   1.0    -0.016435     0.525362     0.269575  Biso 1.000000     N
    N   1.0    -0.017190     0.476368     0.232926  Biso 1.000000     N
    N   1.0     0.487017     0.477746     0.732874  Biso 1.000000     N
    N   1.0     0.488034     0.526677     0.769574  Biso 1.000000     N
    N   1.0    -0.016193     0.976357     0.769404  Biso 1.000000     N
    N   1.0    -0.015313     0.025466     0.732918  Biso 1.000000     N
    N   1.0     0.488132     0.026838     0.232957  Biso 1.000000     N
    N   1.0     0.484541     0.977902     0.269565  Biso 1.000000     N
    O   1.0    -0.012677     0.311497     0.457019  Biso 1.000000     O
    O   1.0     0.271528     0.308549     0.390809  Biso 1.000000     O
    O   1.0     0.000000     0.574118     0.518644  Biso 1.000000     O
    O   1.0     0.989593     0.656427     0.451701  Biso 1.000000     O
    O   1.0     0.000000     0.691966     0.112801  Biso 1.000000     O
    O   1.0     0.987687     0.691353     0.046447  Biso 1.000000     O
    O   1.0    -0.020414     0.346350     0.050094  Biso 1.000000     O
    O   1.0     0.009789     0.428988    -0.016290  Biso 1.000000     O
    O   1.0     0.486990     0.691483     0.545395  Biso 1.000000     O
    O   1.0     0.771597     0.694160     0.611801  Biso 1.000000     O
    O   1.0     0.510271     0.429062     0.483751  Biso 1.000000     O
    O   1.0     0.489778     0.346914     0.550715  Biso 1.000000     O
    O   1.0     0.767270     0.308648     0.890499  Biso 1.000000     O
    O   1.0     0.480465     0.311443     0.956042  Biso 1.000000     O
    O   1.0     0.490145     0.656805     0.952257  Biso 1.000000     O
    O   1.0     0.509888     0.574072     0.000000  Biso 1.000000     O
    O   1.0    -0.011140     0.191390    -0.043841  Biso 1.000000     O
    O   1.0     0.274184     0.191865     0.890066  Biso 1.000000     O
    O   1.0     0.000000     0.928894     0.018619  Biso 1.000000     O
    O   1.0     0.979422     0.846216     0.952054  Biso 1.000000     O
    O   1.0     0.000000     0.808563     0.611245  Biso 1.000000     O
    O   1.0     0.981563     0.811396     0.545456  Biso 1.000000     O
    O   1.0    -0.010086     0.156645     0.550864  Biso 1.000000     O
    O   1.0     0.010275     0.074189     0.483892  Biso 1.000000     O
    O   1.0     0.479645     0.811380     0.000000  Biso 1.000000     O
    O   1.0     0.767263     0.808692     0.111934  Biso 1.000000     O
    O   1.0     0.509899     0.074164     0.983673  Biso 1.000000     O
    O   1.0     0.499423     0.156884     0.050570  Biso 1.000000     O
    O   1.0     0.771125     0.194272     0.391120  Biso 1.000000     O
    O   1.0     0.488431     0.191487     0.457632  Biso 1.000000     O
    O   1.0     0.479879     0.847032     0.451581  Biso 1.000000     O
    O   1.0     0.509878     0.929137     0.518537  Biso 1.000000     O
   Cd   1.0     0.580198     0.311566     0.460825  Biso 1.000000    Cd
   Cd   1.0     0.081518     0.191366     0.461131  Biso 1.000000    Cd
   Cd   1.0     0.000000     0.691291     0.541753  Biso 1.000000    Cd
   Cd   1.0     0.575335     0.811572     0.541301  Biso 1.000000    Cd
   Cd   1.0     0.581261     0.191272     0.960184  Biso 1.000000    Cd
   Cd   1.0     0.075059     0.311564    -0.039696  Biso 1.000000    Cd
   Cd   1.0     0.000000     0.811430     0.041961  Biso 1.000000    Cd
   Cd   1.0     0.579492     0.691142     0.000000  Biso 1.000000    Cd
