#======================================================================

# CRYSTAL DATA

#----------------------------------------------------------------------

data_VESTA_phase_1


_pd_phase_name                         MOF
_cell_length_a                         13.08700
_cell_length_b                         16.83800
_cell_length_c                         13.96000
_cell_angle_alpha                      105.88000
_cell_angle_beta                       89.81000
_cell_angle_gamma                      90.13300
_symmetry_space_group_name_H-M         "P 1"
_symmetry_Int_Tables_number            1

loop_
_symmetry_equiv_pos_as_xyz
   "x, y, z"

loop_
   _atom_site_label
   _atom_site_occupancy
   _atom_site_fract_x
   _atom_site_fract_y
   _atom_site_fract_z
   _atom_site_adp_type
   _atom_site_B_iso_or_equiv
   _atom_site_type_symbol
    H   1.0     0.349686     0.492744     0.720798  Biso 1.000000     H
    H   1.0     0.073936     0.495288     0.548489  Biso 1.000000     H
    H   1.0     0.269506     0.709413     0.628794  Biso 1.000000     H
    H   1.0     0.246666     0.040425     0.757055  Biso 1.000000     H
    H   1.0     0.288881     0.279541     0.963732  Biso 1.000000     H
    H   1.0     0.455123     0.066122     0.000000  Biso 1.000000     H
    H   1.0     0.851048     0.505944     0.776236  Biso 1.000000     H
    H   1.0     0.574268     0.503292     0.948834  Biso 1.000000     H
    H   1.0     0.771106     0.290291     0.871237  Biso 1.000000     H
    H   1.0     0.746602     0.959114     0.744678  Biso 1.000000     H
    H   1.0     0.788267     0.720218     0.537461  Biso 1.000000     H
    H   1.0     0.957910     0.933115     0.500557  Biso 1.000000     H
    H   1.0     0.652516     0.506320     0.275733  Biso 1.000000     H
    H   1.0     0.926306     0.504974     0.451167  Biso 1.000000     H
    H   1.0     0.729480     0.291551     0.372904  Biso 1.000000     H
    H   1.0     0.756052     0.956939     0.242808  Biso 1.000000     H
    H   1.0     0.714143     0.718456     0.034726  Biso 1.000000     H
    H   1.0     0.546842     0.932059    -0.001451  Biso 1.000000     H
    H   1.0     0.153348     0.493345     0.225304  Biso 1.000000     H
    H   1.0     0.426739     0.494257     0.047429  Biso 1.000000     H
    H   1.0     0.230618     0.707632     0.126336  Biso 1.000000     H
    H   1.0     0.254358     0.040903     0.253847  Biso 1.000000     H
    H   1.0     0.214279     0.279818     0.461729  Biso 1.000000     H
    H   1.0     0.045268     0.067015     0.499664  Biso 1.000000     H
    C   1.0     0.407347     0.652380     0.740027  Biso 1.000000     C
    C   1.0     0.318540     0.606025     0.682399  Biso 1.000000     C
    C   1.0     0.299172     0.525303     0.682646  Biso 1.000000     C
    C   1.0     0.209207     0.483388     0.634302  Biso 1.000000     C
    C   1.0     0.142017     0.526678     0.584917  Biso 1.000000     C
    C   1.0     0.164458     0.606091     0.582154  Biso 1.000000     C
    C   1.0     0.099623     0.647710     0.521016  Biso 1.000000     C
    C   1.0     0.252567     0.646522     0.630852  Biso 1.000000     C
    C   1.0     0.388114     0.956513     0.831503  Biso 1.000000     C
    C   1.0     0.354632     0.044153     0.875831  Biso 1.000000     C
    C   1.0     0.282990     0.079145     0.823572  Biso 1.000000     C
    C   1.0     0.258424     0.164049     0.856690  Biso 1.000000     C
    C   1.0     0.177145     0.199442     0.803580  Biso 1.000000     C
    C   1.0     0.306884     0.213845     0.939419  Biso 1.000000     C
    C   1.0     0.378365     0.178759    -0.006229  Biso 1.000000     C
    C   1.0     0.400419     0.092542     0.960785  Biso 1.000000     C
    C   1.0     0.909133     0.347095     0.758945  Biso 1.000000     C
    C   1.0     0.820062     0.393223     0.816276  Biso 1.000000     C
    C   1.0     0.800455     0.473566     0.814953  Biso 1.000000     C
    C   1.0     0.710163     0.515271     0.862856  Biso 1.000000     C
    C   1.0     0.642714     0.472126     0.912787  Biso 1.000000     C
    C   1.0     0.665449     0.393094     0.916602  Biso 1.000000     C
    C   1.0     0.600828     0.351511     0.978466  Biso 1.000000     C
    C   1.0     0.753971     0.352879     0.868367  Biso 1.000000     C
    C   1.0     0.889896     0.042857     0.671081  Biso 1.000000     C
    C   1.0     0.856128     0.955282     0.626447  Biso 1.000000     C
    C   1.0     0.783325     0.920408     0.678251  Biso 1.000000     C
    C   1.0     0.758012     0.835630     0.644700  Biso 1.000000     C
    C   1.0     0.675426     0.800394     0.697096  Biso 1.000000     C
    C   1.0     0.806908     0.785831     0.562083  Biso 1.000000     C
    C   1.0     0.879435     0.820832     0.508127  Biso 1.000000     C
    C   1.0     0.902425     0.906880     0.541588  Biso 1.000000     C
    C   1.0     0.594242     0.347304     0.258323  Biso 1.000000     C
    C   1.0     0.682335     0.393929     0.316593  Biso 1.000000     C
    C   1.0     0.702294     0.474274     0.315154  Biso 1.000000     C
    C   1.0     0.791821     0.516448     0.364018  Biso 1.000000     C
    C   1.0     0.858218     0.473614     0.414737  Biso 1.000000     C
    C   1.0     0.835004     0.394612     0.418647  Biso 1.000000     C
    C   1.0     0.898585     0.353287     0.480975  Biso 1.000000     C
    C   1.0     0.747100     0.354059     0.369796  Biso 1.000000     C
    C   1.0     0.614489     0.041546     0.168691  Biso 1.000000     C
    C   1.0     0.647853     0.953792     0.124303  Biso 1.000000     C
    C   1.0     0.719720     0.918506     0.176104  Biso 1.000000     C
    C   1.0     0.744715     0.833671     0.142200  Biso 1.000000     C
    C   1.0     0.826826     0.797922     0.194204  Biso 1.000000     C
    C   1.0     0.695852     0.784081     0.059580  Biso 1.000000     C
    C   1.0     0.623684     0.819277     0.000000  Biso 1.000000     C
    C   1.0     0.601702     0.905530     0.039445  Biso 1.000000     C
    C   1.0     0.094774     0.652311     0.241824  Biso 1.000000     C
    C   1.0     0.183107     0.605531     0.183542  Biso 1.000000     C
    C   1.0     0.203095     0.525337     0.185367  Biso 1.000000     C
    C   1.0     0.292669     0.483190     0.136120  Biso 1.000000     C
    C   1.0     0.358870     0.525753     0.084353  Biso 1.000000     C
    C   1.0     0.335847     0.604637     0.080218  Biso 1.000000     C
    C   1.0     0.399716     0.645771     0.017246  Biso 1.000000     C
    C   1.0     0.248079     0.645217     0.129657  Biso 1.000000     C
    C   1.0     0.111955     0.957257     0.328747  Biso 1.000000     C
    C   1.0     0.145963     0.044789     0.372968  Biso 1.000000     C
    C   1.0     0.218248     0.079625     0.320629  Biso 1.000000     C
    C   1.0     0.243875     0.164378     0.354149  Biso 1.000000     C
    C   1.0     0.326473     0.199278     0.301405  Biso 1.000000     C
    C   1.0     0.195519     0.214238     0.437062  Biso 1.000000     C
    C   1.0     0.123430     0.179276     0.491451  Biso 1.000000     C
    C   1.0     0.100379     0.093218     0.458224  Biso 1.000000     C
    O   1.0     0.471134     0.610454     0.774675  Biso 1.000000     O
    O   1.0     0.408716     0.729440     0.749872  Biso 1.000000     O
    O   1.0     0.191176     0.409022     0.638442  Biso 1.000000     O
    O   1.0     0.006456     0.619123     0.504650  Biso 1.000000     O
    O   1.0     0.137866     0.702007     0.487500  Biso 1.000000     O
    O   1.0     0.430561     0.919623     0.891452  Biso 1.000000     O
    O   1.0     0.377826     0.925779     0.740120  Biso 1.000000     O
    O   1.0     0.123929     0.142229     0.741716  Biso 1.000000     O
    O   1.0     0.164443     0.274907     0.821163  Biso 1.000000     O
    O   1.0     0.423010     0.224609     0.074178  Biso 1.000000     O
    O   1.0     0.972734     0.388954     0.723380  Biso 1.000000     O
    O   1.0     0.910983     0.270186     0.750067  Biso 1.000000     O
    O   1.0     0.692260     0.589339     0.857573  Biso 1.000000     O
    O   1.0     0.507241     0.378978     0.994488  Biso 1.000000     O
    O   1.0     0.639859     0.298166     0.000000  Biso 1.000000     O
    O   1.0     0.931956     0.080204     0.611103  Biso 1.000000     O
    O   1.0     0.879955     0.073031     0.762648  Biso 1.000000     O
    O   1.0     0.621782     0.857711     0.758371  Biso 1.000000     O
    O   1.0     0.662231     0.724917     0.679436  Biso 1.000000     O
    O   1.0     0.924013     0.774936     0.427439  Biso 1.000000     O
    O   1.0     0.532105     0.388914     0.221408  Biso 1.000000     O
    O   1.0     0.591862     0.270518     0.250158  Biso 1.000000     O
    O   1.0     0.810120     0.590505     0.358743  Biso 1.000000     O
    O   1.0     0.992875     0.379583     0.495137  Biso 1.000000     O
    O   1.0     0.858345     0.301256     0.517020  Biso 1.000000     O
    O   1.0     0.573680     0.078913     0.108282  Biso 1.000000     O
    O   1.0     0.623335     0.072129     0.260227  Biso 1.000000     O
    O   1.0     0.879768     0.854981     0.256636  Biso 1.000000     O
    O   1.0     0.839976     0.722436     0.175258  Biso 1.000000     O
    O   1.0     0.578374     0.773556     0.925902  Biso 1.000000     O
    O   1.0     0.031483     0.611011     0.278513  Biso 1.000000     O
    O   1.0     0.093285     0.729165     0.250083  Biso 1.000000     O
    O   1.0     0.311306     0.409399     0.141815  Biso 1.000000     O
    O   1.0     0.493186     0.617963     0.000783  Biso 1.000000     O
    O   1.0     0.360440     0.699035    -0.016953  Biso 1.000000     O
    O   1.0     0.071316     0.919783     0.389320  Biso 1.000000     O
    O   1.0     0.120299     0.927039     0.237040  Biso 1.000000     O
    O   1.0     0.381994     0.141649     0.242774  Biso 1.000000     O
    O   1.0     0.337960     0.274705     0.316578  Biso 1.000000     O
    O   1.0     0.079284     0.225168     0.572414  Biso 1.000000     O
   Zn   1.0     0.501456     0.819568     0.812876  Biso 1.000000    Zn
   Zn   1.0     0.443540     0.347324     0.105639  Biso 1.000000    Zn
   Zn   1.0     0.004115     0.180293     0.687392  Biso 1.000000    Zn
   Zn   1.0     0.942393     0.652223     0.395024  Biso 1.000000    Zn
   Zn   1.0     0.502315     0.178290     0.186855  Biso 1.000000    Zn
   Zn   1.0     0.559586     0.649991     0.891273  Biso 1.000000    Zn
   Zn   1.0     0.000000     0.819407     0.312433  Biso 1.000000    Zn
   Zn   1.0     0.058235     0.347681     0.604617  Biso 1.000000    Zn
