#======================================================================

# CRYSTAL DATA

#----------------------------------------------------------------------

data_VESTA_phase_1


_pd_phase_name                         MOF
_cell_length_a                         16.78800
_cell_length_b                         18.17700
_cell_length_c                         19.02300
_cell_angle_alpha                      90.02500
_cell_angle_beta                       89.95400
_cell_angle_gamma                      89.96200
_symmetry_space_group_name_H-M         "P 1"
_symmetry_Int_Tables_number            1

loop_
_symmetry_equiv_pos_as_xyz
   "x, y, z"

loop_
   _atom_site_label
   _atom_site_occupancy
   _atom_site_fract_x
   _atom_site_fract_y
   _atom_site_fract_z
   _atom_site_adp_type
   _atom_site_B_iso_or_equiv
   _atom_site_type_symbol
    H   1.0     0.327699     0.079803     0.866756  Biso 1.000000     H
    H   1.0     0.827713     0.079819     0.866794  Biso 1.000000     H
    H   1.0     0.244328     0.069431     0.740786  Biso 1.000000     H
    H   1.0     0.744397     0.069440     0.740795  Biso 1.000000     H
    H   1.0     0.083476     0.105992     0.910627  Biso 1.000000     H
    H   1.0     0.583470     0.105987     0.910589  Biso 1.000000     H
    H   1.0    -0.002397     0.034039     0.838062  Biso 1.000000     H
    H   1.0     0.497631     0.034088     0.838041  Biso 1.000000     H
    H   1.0     0.383175     0.035609     0.754618  Biso 1.000000     H
    H   1.0     0.883122     0.035567     0.754653  Biso 1.000000     H
    H   1.0     0.032185     0.128786     0.594965  Biso 1.000000     H
    H   1.0     0.532271     0.128670     0.594876  Biso 1.000000     H
    H   1.0     0.146265     0.132079     0.678108  Biso 1.000000     H
    H   1.0     0.646358     0.131979     0.678052  Biso 1.000000     H
    H   1.0     0.197901     0.249938     0.123481  Biso 1.000000     H
    H   1.0     0.697890     0.249937     0.123490  Biso 1.000000     H
    H   1.0     0.294254     0.374543     0.121155  Biso 1.000000     H
    H   1.0     0.794248     0.374537     0.121158  Biso 1.000000     H
    H   1.0     0.403537     0.202730     0.004357  Biso 1.000000     H
    H   1.0     0.903513     0.202723     0.004348  Biso 1.000000     H
    H   1.0     0.357852     0.443636     0.024601  Biso 1.000000     H
    H   1.0     0.857841     0.443632     0.024600  Biso 1.000000     H
    H   1.0     0.471709     0.528569     0.001090  Biso 1.000000     H
    H   1.0     0.971698     0.528564     0.001091  Biso 1.000000     H
    H   1.0     0.136678     0.350465     0.029315  Biso 1.000000     H
    H   1.0     0.636677     0.350471     0.029316  Biso 1.000000     H
    H   1.0     0.024032     0.265475     0.057179  Biso 1.000000     H
    H   1.0     0.524030     0.265481     0.057183  Biso 1.000000     H
    H   1.0     0.172194     0.579508     0.133252  Biso 1.000000     H
    H   1.0     0.672185     0.579517     0.133250  Biso 1.000000     H
    H   1.0     0.255542     0.569283     0.259248  Biso 1.000000     H
    H   1.0     0.755532     0.569290     0.259248  Biso 1.000000     H
    H   1.0     0.416366     0.605831     0.089445  Biso 1.000000     H
    H   1.0     0.916360     0.605830     0.089446  Biso 1.000000     H
    H   1.0     0.502374     0.534078     0.161894  Biso 1.000000     H
    H   1.0     0.000000     0.534088     0.161892  Biso 1.000000     H
    H   1.0     0.116852     0.535650     0.245301  Biso 1.000000     H
    H   1.0     0.616845     0.535638     0.245304  Biso 1.000000     H
    H   1.0     0.467559     0.628477     0.405204  Biso 1.000000     H
    H   1.0     0.967552     0.628479     0.405205  Biso 1.000000     H
    H   1.0     0.353454     0.631743     0.322058  Biso 1.000000     H
    H   1.0     0.853444     0.631743     0.322059  Biso 1.000000     H
    H   1.0     0.302167     0.749488     0.876720  Biso 1.000000     H
    H   1.0     0.802164     0.749487     0.876714  Biso 1.000000     H
    H   1.0     0.205871     0.874264     0.878907  Biso 1.000000     H
    H   1.0     0.705867     0.874262     0.878902  Biso 1.000000     H
    H   1.0     0.096372     0.702802     0.995686  Biso 1.000000     H
    H   1.0     0.596373     0.702799     0.995684  Biso 1.000000     H
    H   1.0     0.142145     0.943620     0.975358  Biso 1.000000     H
    H   1.0     0.642146     0.943615     0.975358  Biso 1.000000     H
    H   1.0     0.028234     0.028675     0.998845  Biso 1.000000     H
    H   1.0     0.528233     0.028672     0.998847  Biso 1.000000     H
    H   1.0     0.363343     0.850706     0.970570  Biso 1.000000     H
    H   1.0     0.863331     0.850709     0.970570  Biso 1.000000     H
    H   1.0     0.476033     0.765582     0.942729  Biso 1.000000     H
    H   1.0     0.976020     0.765587     0.942728  Biso 1.000000     H
    H   1.0     0.171728     0.078994     0.367196  Biso 1.000000     H
    H   1.0     0.671803     0.079171     0.367175  Biso 1.000000     H
    H   1.0     0.255172     0.069330     0.241116  Biso 1.000000     H
    H   1.0     0.755197     0.069367     0.241029  Biso 1.000000     H
    H   1.0     0.415824     0.105444     0.410941  Biso 1.000000     H
    H   1.0     0.915927     0.105410     0.410816  Biso 1.000000     H
    H   1.0     0.501992     0.034111     0.338264  Biso 1.000000     H
    H   1.0     0.000000     0.033992     0.338156  Biso 1.000000     H
    H   1.0     0.116572     0.035655     0.254733  Biso 1.000000     H
    H   1.0     0.616530     0.035724     0.254816  Biso 1.000000     H
    H   1.0     0.467342     0.128430     0.095048  Biso 1.000000     H
    H   1.0     0.967420     0.128443     0.094976  Biso 1.000000     H
    H   1.0     0.353168     0.131632     0.178238  Biso 1.000000     H
    H   1.0     0.853219     0.131641     0.178159  Biso 1.000000     H
    H   1.0     0.302156     0.249711     0.623280  Biso 1.000000     H
    H   1.0     0.802031     0.249451     0.623309  Biso 1.000000     H
    H   1.0     0.205880     0.374476     0.620970  Biso 1.000000     H
    H   1.0     0.705888     0.374298     0.620941  Biso 1.000000     H
    H   1.0     0.096415     0.202733     0.504598  Biso 1.000000     H
    H   1.0     0.596364     0.202653     0.504457  Biso 1.000000     H
    H   1.0     0.142163     0.443657     0.524684  Biso 1.000000     H
    H   1.0     0.642175     0.443581     0.524668  Biso 1.000000     H
    H   1.0     0.028259     0.528633     0.501173  Biso 1.000000     H
    H   1.0     0.528283     0.528578     0.501186  Biso 1.000000     H
    H   1.0     0.363408     0.350562     0.529375  Biso 1.000000     H
    H   1.0     0.863403     0.350594     0.529393  Biso 1.000000     H
    H   1.0     0.476062     0.265519     0.557252  Biso 1.000000     H
    H   1.0     0.976071     0.265578     0.557301  Biso 1.000000     H
    H   1.0     0.328089     0.579851     0.632924  Biso 1.000000     H
    H   1.0     0.828081     0.579899     0.632928  Biso 1.000000     H
    H   1.0     0.244766     0.569440     0.759047  Biso 1.000000     H
    H   1.0     0.744761     0.569451     0.759050  Biso 1.000000     H
    H   1.0     0.083843     0.605881     0.589491  Biso 1.000000     H
    H   1.0     0.583829     0.605891     0.589500  Biso 1.000000     H
    H   1.0    -0.001986     0.534218     0.661849  Biso 1.000000     H
    H   1.0     0.498011     0.534206     0.661857  Biso 1.000000     H
    H   1.0     0.383397     0.535783     0.745266  Biso 1.000000     H
    H   1.0     0.883389     0.535797     0.745258  Biso 1.000000     H
    H   1.0     0.032407     0.628279     0.905258  Biso 1.000000     H
    H   1.0     0.532397     0.628275     0.905264  Biso 1.000000     H
    H   1.0     0.146656     0.631518     0.822108  Biso 1.000000     H
    H   1.0     0.646647     0.631516     0.822114  Biso 1.000000     H
    H   1.0     0.197780     0.749645     0.376293  Biso 1.000000     H
    H   1.0     0.697748     0.749691     0.376260  Biso 1.000000     H
    H   1.0     0.293994     0.874339     0.378864  Biso 1.000000     H
    H   1.0     0.793992     0.874372     0.378756  Biso 1.000000     H
    H   1.0     0.403118     0.702582     0.495537  Biso 1.000000     H
    H   1.0     0.903095     0.702657     0.495498  Biso 1.000000     H
    H   1.0     0.357808     0.943531     0.475408  Biso 1.000000     H
    H   1.0     0.857857     0.943603     0.475370  Biso 1.000000     H
    H   1.0     0.471939     0.028151     0.499021  Biso 1.000000     H
    H   1.0     0.972011     0.028037     0.499513  Biso 1.000000     H
    H   1.0     0.136310     0.849385     0.471000  Biso 1.000000     H
    H   1.0     0.636330     0.849531     0.470792  Biso 1.000000     H
    H   1.0     0.023401     0.764884     0.442634  Biso 1.000000     H
    H   1.0     0.523458     0.764895     0.442751  Biso 1.000000     H
    C   1.0     0.264323     0.083482     0.856611  Biso 1.000000     C
    C   1.0     0.764341     0.083494     0.856629  Biso 1.000000     C
    C   1.0     0.223809     0.078414     0.794310  Biso 1.000000     C
    C   1.0     0.723856     0.078422     0.794314  Biso 1.000000     C
    C   1.0     0.138721     0.096558     0.882628  Biso 1.000000     C
    C   1.0     0.638727     0.096557     0.882607  Biso 1.000000     C
    C   1.0     0.078250     0.084995     0.763661  Biso 1.000000     C
    C   1.0     0.578313     0.084961     0.763618  Biso 1.000000     C
    C   1.0     0.004479     0.057176     0.785551  Biso 1.000000     C
    C   1.0     0.504529     0.057180     0.785514  Biso 1.000000     C
    C   1.0     0.440653     0.057799     0.738918  Biso 1.000000     C
    C   1.0     0.940581     0.057808     0.738963  Biso 1.000000     C
    C   1.0     0.449683     0.085203     0.670517  Biso 1.000000     C
    C   1.0     0.949590     0.085274     0.670581  Biso 1.000000     C
    C   1.0     0.024535     0.110491     0.648918  Biso 1.000000     C
    C   1.0     0.524636     0.110364     0.648835  Biso 1.000000     C
    C   1.0     0.088682     0.111036     0.695104  Biso 1.000000     C
    C   1.0     0.588770     0.110940     0.695038  Biso 1.000000     C
    C   1.0     0.380731     0.087725     0.620674  Biso 1.000000     C
    C   1.0     0.880664     0.087756     0.620706  Biso 1.000000     C
    C   1.0     0.255009     0.258921     0.098310  Biso 1.000000     C
    C   1.0     0.754996     0.258918     0.098314  Biso 1.000000     C
    C   1.0     0.301728     0.320697     0.097760  Biso 1.000000     C
    C   1.0     0.801718     0.320692     0.097762  Biso 1.000000     C
    C   1.0     0.360762     0.231580     0.036940  Biso 1.000000     C
    C   1.0     0.860742     0.231574     0.036936  Biso 1.000000     C
    C   1.0     0.434525     0.350374     0.043710  Biso 1.000000     C
    C   1.0     0.934513     0.350367     0.043707  Biso 1.000000     C
    C   1.0     0.419163     0.424158     0.027939  Biso 1.000000     C
    C   1.0     0.919152     0.424153     0.027938  Biso 1.000000     C
    C   1.0     0.482729     0.471294     0.014739  Biso 1.000000     C
    C   1.0     0.982718     0.471288     0.014739  Biso 1.000000     C
    C   1.0     0.061302     0.445147     0.015975  Biso 1.000000     C
    C   1.0     0.561299     0.445152     0.015975  Biso 1.000000     C
    C   1.0     0.075528     0.370514     0.029674  Biso 1.000000     C
    C   1.0     0.575527     0.370520     0.029675  Biso 1.000000     C
    C   1.0     0.012538     0.323026     0.044483  Biso 1.000000     C
    C   1.0     0.512537     0.323032     0.044486  Biso 1.000000     C
    C   1.0     0.128751     0.497376     0.002199  Biso 1.000000     C
    C   1.0     0.628748     0.497381     0.002199  Biso 1.000000     C
    C   1.0     0.235558     0.583227     0.143418  Biso 1.000000     C
    C   1.0     0.735549     0.583233     0.143417  Biso 1.000000     C
    C   1.0     0.276060     0.578230     0.205728  Biso 1.000000     C
    C   1.0     0.776050     0.578237     0.205728  Biso 1.000000     C
    C   1.0     0.361139     0.596373     0.117433  Biso 1.000000     C
    C   1.0     0.861132     0.596376     0.117435  Biso 1.000000     C
    C   1.0     0.421594     0.584848     0.236407  Biso 1.000000     C
    C   1.0     0.921587     0.584858     0.236405  Biso 1.000000     C
    C   1.0     0.495434     0.557135     0.214454  Biso 1.000000     C
    C   1.0     0.995426     0.557139     0.214454  Biso 1.000000     C
    C   1.0     0.059323     0.557781     0.261036  Biso 1.000000     C
    C   1.0     0.559316     0.557770     0.261039  Biso 1.000000     C
    C   1.0     0.050249     0.585150     0.329472  Biso 1.000000     C
    C   1.0     0.550242     0.585140     0.329474  Biso 1.000000     C
    C   1.0     0.475237     0.610218     0.351216  Biso 1.000000     C
    C   1.0     0.975230     0.610226     0.351215  Biso 1.000000     C
    C   1.0     0.411089     0.610771     0.305026  Biso 1.000000     C
    C   1.0     0.911080     0.610770     0.305027  Biso 1.000000     C
    C   1.0     0.119237     0.587682     0.379269  Biso 1.000000     C
    C   1.0     0.619235     0.587696     0.379265  Biso 1.000000     C
    C   1.0     0.245037     0.758610     0.901836  Biso 1.000000     C
    C   1.0     0.745035     0.758608     0.901831  Biso 1.000000     C
    C   1.0     0.198349     0.820463     0.902320  Biso 1.000000     C
    C   1.0     0.698347     0.820461     0.902316  Biso 1.000000     C
    C   1.0     0.139201     0.731526     0.963122  Biso 1.000000     C
    C   1.0     0.639201     0.731524     0.963119  Biso 1.000000     C
    C   1.0     0.065498     0.850409     0.956243  Biso 1.000000     C
    C   1.0     0.565497     0.850405     0.956242  Biso 1.000000     C
    C   1.0     0.080841     0.924193     0.972007  Biso 1.000000     C
    C   1.0     0.580842     0.924190     0.972005  Biso 1.000000     C
    C   1.0     0.017255     0.971398     0.985186  Biso 1.000000     C
    C   1.0     0.517256     0.971395     0.985185  Biso 1.000000     C
    C   1.0     0.438700     0.945315     0.983940  Biso 1.000000     C
    C   1.0     0.938685     0.945319     0.983941  Biso 1.000000     C
    C   1.0     0.424489     0.870691     0.970222  Biso 1.000000     C
    C   1.0     0.924476     0.870695     0.970222  Biso 1.000000     C
    C   1.0     0.487497     0.823134     0.955434  Biso 1.000000     C
    C   1.0     0.987484     0.823138     0.955435  Biso 1.000000     C
    C   1.0     0.371233     0.997592     0.997748  Biso 1.000000     C
    C   1.0     0.871220     0.997598     0.997753  Biso 1.000000     C
    C   1.0     0.235103     0.082831     0.357029  Biso 1.000000     C
    C   1.0     0.735167     0.082939     0.356934  Biso 1.000000     C
    C   1.0     0.275646     0.078110     0.294654  Biso 1.000000     C
    C   1.0     0.775693     0.078158     0.294558  Biso 1.000000     C
    C   1.0     0.360642     0.096017     0.382943  Biso 1.000000     C
    C   1.0     0.860736     0.096017     0.382824  Biso 1.000000     C
    C   1.0     0.421228     0.084829     0.263862  Biso 1.000000     C
    C   1.0     0.921268     0.084790     0.263758  Biso 1.000000     C
    C   1.0     0.495078     0.057165     0.285730  Biso 1.000000     C
    C   1.0     0.995099     0.057098     0.285637  Biso 1.000000     C
    C   1.0     0.059061     0.057776     0.239032  Biso 1.000000     C
    C   1.0     0.559016     0.057829     0.239105  Biso 1.000000     C
    C   1.0     0.050078     0.085143     0.170619  Biso 1.000000     C
    C   1.0     0.550026     0.085160     0.170678  Biso 1.000000     C
    C   1.0     0.475009     0.110190     0.149019  Biso 1.000000     C
    C   1.0     0.975063     0.110186     0.148944  Biso 1.000000     C
    C   1.0     0.410799     0.110714     0.195252  Biso 1.000000     C
    C   1.0     0.910846     0.110708     0.195163  Biso 1.000000     C
    C   1.0     0.119168     0.087744     0.120811  Biso 1.000000     C
    C   1.0     0.619113     0.087742     0.120847  Biso 1.000000     C
    C   1.0     0.245048     0.258752     0.598186  Biso 1.000000     C
    C   1.0     0.744942     0.258536     0.598195  Biso 1.000000     C
    C   1.0     0.198368     0.320614     0.597645  Biso 1.000000     C
    C   1.0     0.698329     0.320439     0.597621  Biso 1.000000     C
    C   1.0     0.139269     0.231514     0.537054  Biso 1.000000     C
    C   1.0     0.639180     0.231397     0.536982  Biso 1.000000     C
    C   1.0     0.065544     0.350420     0.543791  Biso 1.000000     C
    C   1.0     0.565538     0.350345     0.543748  Biso 1.000000     C
    C   1.0     0.080866     0.424200     0.528025  Biso 1.000000     C
    C   1.0     0.580875     0.424128     0.528005  Biso 1.000000     C
    C   1.0     0.017278     0.471360     0.514826  Biso 1.000000     C
    C   1.0     0.517293     0.471303     0.514823  Biso 1.000000     C
    C   1.0     0.438743     0.445197     0.516034  Biso 1.000000     C
    C   1.0     0.938721     0.445241     0.516043  Biso 1.000000     C
    C   1.0     0.424541     0.370578     0.529741  Biso 1.000000     C
    C   1.0     0.924533     0.370622     0.529761  Biso 1.000000     C
    C   1.0     0.487540     0.323059     0.544543  Biso 1.000000     C
    C   1.0     0.987540     0.323117     0.544583  Biso 1.000000     C
    C   1.0     0.371286     0.497440     0.502173  Biso 1.000000     C
    C   1.0     0.871260     0.497476     0.502182  Biso 1.000000     C
    C   1.0     0.264716     0.583486     0.643193  Biso 1.000000     C
    C   1.0     0.764708     0.583522     0.643197  Biso 1.000000     C
    C   1.0     0.224231     0.578396     0.705559  Biso 1.000000     C
    C   1.0     0.724223     0.578412     0.705562  Biso 1.000000     C
    C   1.0     0.139096     0.596474     0.617399  Biso 1.000000     C
    C   1.0     0.639084     0.596489     0.617406  Biso 1.000000     C
    C   1.0     0.078647     0.584835     0.736406  Biso 1.000000     C
    C   1.0     0.578641     0.584829     0.736413  Biso 1.000000     C
    C   1.0     0.004858     0.557204     0.714433  Biso 1.000000     C
    C   1.0     0.504853     0.557195     0.714440  Biso 1.000000     C
    C   1.0     0.440894     0.557832     0.761028  Biso 1.000000     C
    C   1.0     0.940886     0.557844     0.761021  Biso 1.000000     C
    C   1.0     0.449845     0.585121     0.829487  Biso 1.000000     C
    C   1.0     0.949839     0.585130     0.829481  Biso 1.000000     C
    C   1.0     0.024820     0.610090     0.851252  Biso 1.000000     C
    C   1.0     0.524812     0.610084     0.851258  Biso 1.000000     C
    C   1.0     0.089049     0.610636     0.805059  Biso 1.000000     C
    C   1.0     0.589040     0.610632     0.805065  Biso 1.000000     C
    C   1.0     0.380770     0.587698     0.879283  Biso 1.000000     C
    C   1.0     0.880767     0.587697     0.879281  Biso 1.000000     C
    C   1.0     0.254811     0.758665     0.401514  Biso 1.000000     C
    C   1.0     0.754783     0.758716     0.401471  Biso 1.000000     C
    C   1.0     0.301475     0.820477     0.402167  Biso 1.000000     C
    C   1.0     0.801457     0.820525     0.402094  Biso 1.000000     C
    C   1.0     0.360410     0.731395     0.462940  Biso 1.000000     C
    C   1.0     0.860385     0.731456     0.462891  Biso 1.000000     C
    C   1.0     0.434232     0.850071     0.456258  Biso 1.000000     C
    C   1.0     0.934221     0.850098     0.456233  Biso 1.000000     C
    C   1.0     0.419066     0.923895     0.472072  Biso 1.000000     C
    C   1.0     0.919101     0.923908     0.472141  Biso 1.000000     C
    C   1.0     0.482775     0.970836     0.485334  Biso 1.000000     C
    C   1.0     0.982823     0.970749     0.485701  Biso 1.000000     C
    C   1.0     0.061269     0.944253     0.484619  Biso 1.000000     C
    C   1.0     0.561243     0.944433     0.484127  Biso 1.000000     C
    C   1.0     0.075239     0.869629     0.470598  Biso 1.000000     C
    C   1.0     0.575252     0.869759     0.470389  Biso 1.000000     C
    C   1.0     0.012118     0.822444     0.455499  Biso 1.000000     C
    C   1.0     0.512140     0.822478     0.455497  Biso 1.000000     C
    C   1.0     0.129032     0.995920     0.498947  Biso 1.000000     C
    C   1.0     0.628904     0.996351     0.498024  Biso 1.000000     C
    N   1.0     0.210903     0.094937     0.911071  Biso 1.000000     N
    N   1.0     0.710896     0.094943     0.911073  Biso 1.000000     N
    N   1.0     0.143565     0.086380     0.811424  Biso 1.000000     N
    N   1.0     0.643604     0.086381     0.811401  Biso 1.000000     N
    N   1.0     0.292283     0.203932     0.060131  Biso 1.000000     N
    N   1.0     0.792264     0.203927     0.060131  Biso 1.000000     N
    N   1.0     0.369134     0.302719     0.058814  Biso 1.000000     N
    N   1.0     0.869120     0.302712     0.058811  Biso 1.000000     N
    N   1.0     0.288970     0.594683     0.088974  Biso 1.000000     N
    N   1.0     0.788964     0.594687     0.088974  Biso 1.000000     N
    N   1.0     0.356291     0.586237     0.188635  Biso 1.000000     N
    N   1.0     0.856282     0.586236     0.188636  Biso 1.000000     N
    N   1.0     0.207689     0.703736     0.940005  Biso 1.000000     N
    N   1.0     0.707689     0.703735     0.940001  Biso 1.000000     N
    N   1.0     0.130893     0.802649     0.941215  Biso 1.000000     N
    N   1.0     0.630891     0.802646     0.941212  Biso 1.000000     N
    N   1.0     0.288459     0.094137     0.411475  Biso 1.000000     N
    N   1.0     0.788562     0.094212     0.411360  Biso 1.000000     N
    N   1.0     0.355865     0.086134     0.311696  Biso 1.000000     N
    N   1.0     0.855924     0.086118     0.311585  Biso 1.000000     N
    N   1.0     0.207731     0.203766     0.560145  Biso 1.000000     N
    N   1.0     0.707591     0.203584     0.560128  Biso 1.000000     N
    N   1.0     0.130933     0.302706     0.558841  Biso 1.000000     N
    N   1.0     0.630906     0.302593     0.558774  Biso 1.000000     N
    N   1.0     0.211262     0.594902     0.588835  Biso 1.000000     N
    N   1.0     0.711251     0.594938     0.588841  Biso 1.000000     N
    N   1.0     0.143973     0.586295     0.688585  Biso 1.000000     N
    N   1.0     0.643964     0.586300     0.688590  Biso 1.000000     N
    N   1.0     0.292032     0.703697     0.439668  Biso 1.000000     N
    N   1.0     0.791999     0.703758     0.439641  Biso 1.000000     N
    N   1.0     0.368781     0.802534     0.441144  Biso 1.000000     N
    N   1.0     0.868765     0.802586     0.441069  Biso 1.000000     N
    O   1.0     0.312472     0.065427     0.641702  Biso 1.000000     O
    O   1.0     0.812402     0.065452     0.641698  Biso 1.000000     O
    O   1.0     0.392344     0.112497     0.558675  Biso 1.000000     O
    O   1.0     0.892315     0.112505     0.558694  Biso 1.000000     O
    O   1.0     0.114029     0.566261     0.000000  Biso 1.000000     O
    O   1.0     0.614025     0.566266     0.000000  Biso 1.000000     O
    O   1.0     0.198118     0.471206     0.990277  Biso 1.000000     O
    O   1.0     0.698114     0.471211     0.990277  Biso 1.000000     O
    O   1.0     0.187521     0.565471     0.358224  Biso 1.000000     O
    O   1.0     0.687517     0.565473     0.358226  Biso 1.000000     O
    O   1.0     0.107604     0.612550     0.441289  Biso 1.000000     O
    O   1.0     0.607596     0.612545     0.441291  Biso 1.000000     O
    O   1.0     0.385914     0.066454    -0.003306  Biso 1.000000     O
    O   1.0     0.885900     0.066459    -0.003301  Biso 1.000000     O
    O   1.0     0.301885     0.971453     0.009649  Biso 1.000000     O
    O   1.0     0.801870     0.971458     0.009652  Biso 1.000000     O
    O   1.0     0.187433     0.065564     0.141802  Biso 1.000000     O
    O   1.0     0.687386     0.065559     0.141821  Biso 1.000000     O
    O   1.0     0.107577     0.112571     0.058797  Biso 1.000000     O
    O   1.0     0.607531     0.112578     0.058833  Biso 1.000000     O
    O   1.0     0.385945     0.566310     0.503251  Biso 1.000000     O
    O   1.0     0.885919     0.566348     0.503239  Biso 1.000000     O
    O   1.0     0.301971     0.471277     0.490265  Biso 1.000000     O
    O   1.0     0.801948     0.471309     0.490274  Biso 1.000000     O
    O   1.0     0.312532     0.565532     0.858258  Biso 1.000000     O
    O   1.0     0.812527     0.565534     0.858255  Biso 1.000000     O
    O   1.0     0.392335     0.612540     0.941305  Biso 1.000000     O
    O   1.0     0.892331     0.612542     0.941303  Biso 1.000000     O
    O   1.0     0.114495     0.064940     0.499399  Biso 1.000000     O
    O   1.0     0.614449     0.065344     0.496935  Biso 1.000000     O
    O   1.0     0.198340     0.969265     0.509631  Biso 1.000000     O
    O   1.0     0.698053     0.969829     0.509953  Biso 1.000000     O
   Cd   1.0     0.245450     0.089306     0.028696  Biso 1.000000    Cd
   Cd   1.0     0.745407     0.089295     0.028718  Biso 1.000000    Cd
   Cd   1.0     0.254451     0.589054     0.971351  Biso 1.000000    Cd
   Cd   1.0     0.754449     0.589054     0.971350  Biso 1.000000    Cd
   Cd   1.0     0.253980     0.088447     0.529219  Biso 1.000000    Cd
   Cd   1.0     0.754069     0.088484     0.529017  Biso 1.000000    Cd
   Cd   1.0     0.245527     0.589055     0.471158  Biso 1.000000    Cd
   Cd   1.0     0.745511     0.589100     0.471163  Biso 1.000000    Cd
