#======================================================================

# CRYSTAL DATA

#----------------------------------------------------------------------

data_VESTA_phase_1


_pd_phase_name                         MOF
_cell_length_a                         16.40100
_cell_length_b                         16.42500
_cell_length_c                         16.07900
_cell_angle_alpha                      90.01400
_cell_angle_beta                       89.99200
_cell_angle_gamma                      119.91200
_symmetry_space_group_name_H-M         "P 1"
_symmetry_Int_Tables_number            1

loop_
_symmetry_equiv_pos_as_xyz
   "x, y, z"

loop_
   _atom_site_label
   _atom_site_occupancy
   _atom_site_fract_x
   _atom_site_fract_y
   _atom_site_fract_z
   _atom_site_adp_type
   _atom_site_B_iso_or_equiv
   _atom_site_type_symbol
    H   1.0     0.398571     0.339255     0.943282  Biso 1.000000     H
    H   1.0     0.939380     0.600275     0.942548  Biso 1.000000     H
    H   1.0     0.660858     0.059370     0.942862  Biso 1.000000     H
    H   1.0     0.601411     0.660778     0.443329  Biso 1.000000     H
    H   1.0     0.060874     0.399998     0.442419  Biso 1.000000     H
    H   1.0     0.339166     0.940922     0.442885  Biso 1.000000     H
    H   1.0     0.058958     0.660735     0.056775  Biso 1.000000     H
    H   1.0     0.339282     0.399605     0.057570  Biso 1.000000     H
    H   1.0     0.601039     0.940039     0.057106  Biso 1.000000     H
    H   1.0     0.941330     0.339321     0.556721  Biso 1.000000     H
    H   1.0     0.660707     0.600437     0.557566  Biso 1.000000     H
    H   1.0     0.399223     0.060292     0.557185  Biso 1.000000     H
    H   1.0     0.601426     0.660766     0.056752  Biso 1.000000     H
    H   1.0     0.060616     0.399749     0.057482  Biso 1.000000     H
    H   1.0     0.339139     0.940651     0.057166  Biso 1.000000     H
    H   1.0     0.398581     0.339247     0.556704  Biso 1.000000     H
    H   1.0     0.939121     0.600028     0.557610  Biso 1.000000     H
    H   1.0     0.660832     0.059106     0.557143  Biso 1.000000     H
    H   1.0     0.941038     0.339289     0.943255  Biso 1.000000     H
    H   1.0     0.660715     0.600416     0.942464  Biso 1.000000     H
    H   1.0     0.398958     0.059982     0.942922  Biso 1.000000     H
    H   1.0     0.058665     0.660705     0.443308  Biso 1.000000     H
    H   1.0     0.339286     0.399588     0.442467  Biso 1.000000     H
    H   1.0     0.600775     0.939735     0.442842  Biso 1.000000     H
    C   1.0     0.442262     0.409522     0.968535  Biso 1.000000     C
    C   1.0     0.966526     0.557106     0.968134  Biso 1.000000     C
    C   1.0     0.590551     0.032789     0.968299  Biso 1.000000     C
    C   1.0     0.557718     0.590506     0.468547  Biso 1.000000     C
    C   1.0     0.033605     0.443050     0.468064  Biso 1.000000     C
    C   1.0     0.409460     0.967386     0.468302  Biso 1.000000     C
    C   1.0     0.032553     0.590481     0.031517  Biso 1.000000     C
    C   1.0     0.409523     0.442836     0.031942  Biso 1.000000     C
    C   1.0     0.557512     0.966894     0.031699  Biso 1.000000     C
    C   1.0     0.967592     0.409556     0.531502  Biso 1.000000     C
    C   1.0     0.590462     0.557185     0.531951  Biso 1.000000     C
    C   1.0     0.442614     0.033284     0.531739  Biso 1.000000     C
    C   1.0     0.557735     0.590500     0.031498  Biso 1.000000     C
    C   1.0     0.033471     0.442918     0.031895  Biso 1.000000     C
    C   1.0     0.409447     0.967236     0.031732  Biso 1.000000     C
    C   1.0     0.442275     0.409518     0.531485  Biso 1.000000     C
    C   1.0     0.966388     0.556975     0.531964  Biso 1.000000     C
    C   1.0     0.590536     0.032638     0.531728  Biso 1.000000     C
    C   1.0     0.967444     0.409543     0.968512  Biso 1.000000     C
    C   1.0     0.590474     0.557186     0.968090  Biso 1.000000     C
    C   1.0     0.442487     0.033131     0.968332  Biso 1.000000     C
    C   1.0     0.032401     0.590469     0.468526  Biso 1.000000     C
    C   1.0     0.409532     0.442839     0.468080  Biso 1.000000     C
    C   1.0     0.557382     0.966740     0.468292  Biso 1.000000     C
    C   1.0     0.568147     0.430829     0.868430  Biso 1.000000     C
    C   1.0     0.533172     0.466258     0.935660  Biso 1.000000     C
    C   1.0     0.862730     0.430750     0.868461  Biso 1.000000     C
    C   1.0     0.933092     0.466196     0.935675  Biso 1.000000     C
    C   1.0     0.568660     0.137045     0.868438  Biso 1.000000     C
    C   1.0     0.533476     0.066795     0.935650  Biso 1.000000     C
    C   1.0     0.431811     0.569178     0.368451  Biso 1.000000     C
    C   1.0     0.466807     0.533767     0.435668  Biso 1.000000     C
    C   1.0     0.137245     0.569415     0.368417  Biso 1.000000     C
    C   1.0     0.066888     0.533930     0.435639  Biso 1.000000     C
    C   1.0     0.431171     0.862971     0.368420  Biso 1.000000     C
    C   1.0     0.466414     0.933225     0.435636  Biso 1.000000     C
    C   1.0     0.137266     0.569275     0.131568  Biso 1.000000     C
    C   1.0     0.066902     0.533827     0.064356  Biso 1.000000     C
    C   1.0     0.431848     0.569194     0.131601  Biso 1.000000     C
    C   1.0     0.466826     0.533763     0.064375  Biso 1.000000     C
    C   1.0     0.431337     0.862978     0.131592  Biso 1.000000     C
    C   1.0     0.466519     0.933221     0.064374  Biso 1.000000     C
    C   1.0     0.862751     0.430611     0.631613  Biso 1.000000     C
    C   1.0     0.933111     0.466097     0.564392  Biso 1.000000     C
    C   1.0     0.568182     0.430846     0.631580  Biso 1.000000     C
    C   1.0     0.533185     0.466259     0.564366  Biso 1.000000     C
    C   1.0     0.568826     0.137056     0.631609  Biso 1.000000     C
    C   1.0     0.533587     0.066807     0.564388  Biso 1.000000     C
    O   1.0     0.651826     0.484430     0.840381  Biso 1.000000     O
    O   1.0     0.833216     0.347205     0.840475  Biso 1.000000     O
    O   1.0     0.514770     0.166909     0.840425  Biso 1.000000     O
    O   1.0     0.348125     0.515562     0.340417  Biso 1.000000     O
    O   1.0     0.166744     0.652936     0.340446  Biso 1.000000     O
    O   1.0     0.485037     0.833051     0.340407  Biso 1.000000     O
    O   1.0     0.167393     0.515668     0.159620  Biso 1.000000     O
    O   1.0     0.485798     0.652729     0.159583  Biso 1.000000     O
    O   1.0     0.347622     0.833267     0.159583  Biso 1.000000     O
    O   1.0     0.832582     0.484209     0.659664  Biso 1.000000     O
    O   1.0     0.514249     0.347324     0.659567  Biso 1.000000     O
    O   1.0     0.652514     0.166718     0.659613  Biso 1.000000     O
    O   1.0     0.348170     0.515593     0.159651  Biso 1.000000     O
    O   1.0     0.166778     0.652819     0.159556  Biso 1.000000     O
    O   1.0     0.485228     0.833113     0.159603  Biso 1.000000     O
    O   1.0     0.651869     0.484461     0.659615  Biso 1.000000     O
    O   1.0     0.833253     0.347091     0.659584  Biso 1.000000     O
    O   1.0     0.514960     0.166976     0.659621  Biso 1.000000     O
    O   1.0     0.832602     0.484357     0.840411  Biso 1.000000     O
    O   1.0     0.514198     0.347293     0.840448  Biso 1.000000     O
    O   1.0     0.652375     0.166755     0.840445  Biso 1.000000     O
    O   1.0     0.167413     0.515817     0.340366  Biso 1.000000     O
    O   1.0     0.485744     0.652701     0.340465  Biso 1.000000     O
    O   1.0     0.347483     0.833309     0.340415  Biso 1.000000     O
    O   1.0     0.666531     0.332807     0.750026  Biso 1.000000     O
    O   1.0     0.333465     0.667217     0.250004  Biso 1.000000     O
   Sc   1.0     0.735442     0.470758     0.750005  Biso 1.000000    Sc
   Sc   1.0     0.735835     0.263864     0.750060  Biso 1.000000    Sc
   Sc   1.0     0.528380     0.263979     0.750002  Biso 1.000000    Sc
   Sc   1.0     0.264553     0.529266     0.250026  Biso 1.000000    Sc
   Sc   1.0     0.264161     0.736161     0.249968  Biso 1.000000    Sc
   Sc   1.0     0.471616     0.736044     0.250028  Biso 1.000000    Sc
