#======================================================================

# CRYSTAL DATA

#----------------------------------------------------------------------

data_VESTA_phase_1


_pd_phase_name                         MOF
_cell_length_a                         17.85700
_cell_length_b                         12.69600
_cell_length_c                         26.53400
_cell_angle_alpha                      89.98400
_cell_angle_beta                       90.02700
_cell_angle_gamma                      89.97500
_symmetry_space_group_name_H-M         "P 1"
_symmetry_Int_Tables_number            1

loop_
_symmetry_equiv_pos_as_xyz
   "x, y, z"

loop_
   _atom_site_label
   _atom_site_occupancy
   _atom_site_fract_x
   _atom_site_fract_y
   _atom_site_fract_z
   _atom_site_adp_type
   _atom_site_B_iso_or_equiv
   _atom_site_type_symbol
    H   1.0     0.391300     0.440347     0.176234  Biso 1.000000     H
    H   1.0     0.891299     0.440340     0.176236  Biso 1.000000     H
    H   1.0     0.403170     0.426327     0.269976  Biso 1.000000     H
    H   1.0     0.903171     0.426320     0.269978  Biso 1.000000     H
    H   1.0     0.348096     0.096475     0.261258  Biso 1.000000     H
    H   1.0     0.848088     0.096471     0.261260  Biso 1.000000     H
    H   1.0     0.342539     0.107646     0.167897  Biso 1.000000     H
    H   1.0     0.842529     0.107643     0.167899  Biso 1.000000     H
    H   1.0     0.497260     0.152559     0.289265  Biso 1.000000     H
    H   1.0     0.997253     0.152543     0.289268  Biso 1.000000     H
    H   1.0     0.065915     0.011786     0.333518  Biso 1.000000     H
    H   1.0     0.565924     0.011807     0.333513  Biso 1.000000     H
    H   1.0     0.412056     0.034212     0.458828  Biso 1.000000     H
    H   1.0     0.912040     0.034207     0.458831  Biso 1.000000     H
    H   1.0     0.343655     0.176223     0.414746  Biso 1.000000     H
    H   1.0     0.843646     0.176223     0.414748  Biso 1.000000     H
    H   1.0     0.235584     0.311855     0.307294  Biso 1.000000     H
    H   1.0     0.735581     0.311855     0.307295  Biso 1.000000     H
    H   1.0     0.160738     0.442229     0.357176  Biso 1.000000     H
    H   1.0     0.660738     0.442234     0.357175  Biso 1.000000     H
    H   1.0     0.354357     0.500931     0.451029  Biso 1.000000     H
    H   1.0     0.854357     0.500932     0.451028  Biso 1.000000     H
    H   1.0     0.428143     0.373107     0.401371  Biso 1.000000     H
    H   1.0     0.928141     0.373103     0.401372  Biso 1.000000     H
    H   1.0     0.108080     0.440923     0.823633  Biso 1.000000     H
    H   1.0     0.608099     0.440925     0.823632  Biso 1.000000     H
    H   1.0     0.096351     0.426471     0.729893  Biso 1.000000     H
    H   1.0     0.596363     0.426477     0.729892  Biso 1.000000     H
    H   1.0     0.151718     0.096694     0.739063  Biso 1.000000     H
    H   1.0     0.651703     0.096690     0.739059  Biso 1.000000     H
    H   1.0     0.157176     0.108286     0.832418  Biso 1.000000     H
    H   1.0     0.657165     0.108279     0.832414  Biso 1.000000     H
    H   1.0     0.002432     0.153242     0.711233  Biso 1.000000     H
    H   1.0     0.502425     0.153251     0.711228  Biso 1.000000     H
    H   1.0     0.433091     0.012974     0.667237  Biso 1.000000     H
    H   1.0     0.933091     0.012967     0.667243  Biso 1.000000     H
    H   1.0     0.086177     0.034365     0.541448  Biso 1.000000     H
    H   1.0     0.586180     0.034365     0.541446  Biso 1.000000     H
    H   1.0     0.155269     0.175899     0.585281  Biso 1.000000     H
    H   1.0     0.655270     0.175901     0.585279  Biso 1.000000     H
    H   1.0     0.263995     0.311910     0.692931  Biso 1.000000     H
    H   1.0     0.763994     0.311905     0.692926  Biso 1.000000     H
    H   1.0     0.338705     0.442685     0.643213  Biso 1.000000     H
    H   1.0     0.838706     0.442680     0.643208  Biso 1.000000     H
    H   1.0     0.145330     0.500706     0.548991  Biso 1.000000     H
    H   1.0     0.645328     0.500713     0.548990  Biso 1.000000     H
    H   1.0     0.071661     0.372594     0.598505  Biso 1.000000     H
    H   1.0     0.571658     0.372602     0.598504  Biso 1.000000     H
    H   1.0     0.391728     0.939856     0.323851  Biso 1.000000     H
    H   1.0     0.891712     0.939857     0.323849  Biso 1.000000     H
    H   1.0     0.403259     0.926056     0.230099  Biso 1.000000     H
    H   1.0     0.903246     0.926058     0.230098  Biso 1.000000     H
    H   1.0     0.347764     0.596331     0.238741  Biso 1.000000     H
    H   1.0     0.847769     0.596327     0.238738  Biso 1.000000     H
    H   1.0     0.342475     0.607264     0.332109  Biso 1.000000     H
    H   1.0     0.842478     0.607259     0.332106  Biso 1.000000     H
    H   1.0     0.497117     0.652428     0.210876  Biso 1.000000     H
    H   1.0     0.997114     0.652427     0.210870  Biso 1.000000     H
    H   1.0     0.065845     0.511782     0.166677  Biso 1.000000     H
    H   1.0     0.565849     0.511787     0.166685  Biso 1.000000     H
    H   1.0     0.412077     0.534309     0.041220  Biso 1.000000     H
    H   1.0     0.912060     0.534309     0.041217  Biso 1.000000     H
    H   1.0     0.343604     0.676213     0.085245  Biso 1.000000     H
    H   1.0     0.843592     0.676216     0.085243  Biso 1.000000     H
    H   1.0     0.235445     0.811808     0.192686  Biso 1.000000     H
    H   1.0     0.735439     0.811804     0.192682  Biso 1.000000     H
    H   1.0     0.160619    -0.057655     0.142799  Biso 1.000000     H
    H   1.0     0.660612    -0.057659     0.142796  Biso 1.000000     H
    H   1.0     0.354240     0.001126     0.049073  Biso 1.000000     H
    H   1.0     0.854236     0.001134     0.049073  Biso 1.000000     H
    H   1.0     0.428010     0.873202     0.098735  Biso 1.000000     H
    H   1.0     0.928006     0.873208     0.098735  Biso 1.000000     H
    H   1.0     0.108017     0.940547     0.676292  Biso 1.000000     H
    H   1.0     0.608001     0.940541     0.676293  Biso 1.000000     H
    H   1.0     0.096520     0.926341     0.770043  Biso 1.000000     H
    H   1.0     0.596507     0.926335     0.770044  Biso 1.000000     H
    H   1.0     0.151854     0.596535     0.761149  Biso 1.000000     H
    H   1.0     0.651860     0.596535     0.761150  Biso 1.000000     H
    H   1.0     0.157118     0.607874     0.667786  Biso 1.000000     H
    H   1.0     0.657122     0.607874     0.667787  Biso 1.000000     H
    H   1.0     0.002491     0.653388     0.788839  Biso 1.000000     H
    H   1.0     0.502494     0.653373     0.788843  Biso 1.000000     H
    H   1.0     0.433118     0.513136     0.832827  Biso 1.000000     H
    H   1.0     0.933099     0.513162     0.832821  Biso 1.000000     H
    H   1.0     0.086250     0.534355     0.958677  Biso 1.000000     H
    H   1.0     0.586272     0.534346     0.958678  Biso 1.000000     H
    H   1.0     0.155391     0.675845     0.914852  Biso 1.000000     H
    H   1.0     0.655401     0.675846     0.914851  Biso 1.000000     H
    H   1.0     0.264150     0.811979     0.807202  Biso 1.000000     H
    H   1.0     0.764145     0.811990     0.807199  Biso 1.000000     H
    H   1.0     0.338829    -0.057130     0.856892  Biso 1.000000     H
    H   1.0     0.838822    -0.057113     0.856887  Biso 1.000000     H
    H   1.0     0.145424     0.000880     0.950946  Biso 1.000000     H
    H   1.0     0.645419     0.000879     0.950947  Biso 1.000000     H
    H   1.0     0.071783     0.872712     0.901459  Biso 1.000000     H
    H   1.0     0.571781     0.872706     0.901461  Biso 1.000000     H
    B   1.0     0.478691     0.046496     0.869323  Biso 1.000000     B
    B   1.0     0.978688     0.046496     0.869323  Biso 1.000000     B
    B   1.0     0.021288     0.046510     0.130685  Biso 1.000000     B
    B   1.0     0.521286     0.046510     0.130685  Biso 1.000000     B
    B   1.0     0.478008     0.545262     0.630183  Biso 1.000000     B
    B   1.0     0.978005     0.545262     0.630183  Biso 1.000000     B
    B   1.0     0.021949     0.545281     0.369808  Biso 1.000000     B
    B   1.0     0.521946     0.545281     0.369808  Biso 1.000000     B
    C   1.0     0.359044     0.282730     0.113342  Biso 1.000000     C
    C   1.0     0.859037     0.282726     0.113344  Biso 1.000000     C
    C   1.0     0.364583     0.275317     0.166464  Biso 1.000000     C
    C   1.0     0.864578     0.275312     0.166466  Biso 1.000000     C
    C   1.0     0.381239     0.365713     0.195201  Biso 1.000000     C
    C   1.0     0.881237     0.365707     0.195202  Biso 1.000000     C
    C   1.0     0.386810     0.358605     0.247235  Biso 1.000000     C
    C   1.0     0.886809     0.358598     0.247237  Biso 1.000000     C
    C   1.0     0.374249     0.261374     0.271048  Biso 1.000000     C
    C   1.0     0.874246     0.261369     0.271049  Biso 1.000000     C
    C   1.0     0.357856     0.171391     0.242424  Biso 1.000000     C
    C   1.0     0.857851     0.171387     0.242426  Biso 1.000000     C
    C   1.0     0.353721     0.177502     0.190323  Biso 1.000000     C
    C   1.0     0.853714     0.177498     0.190324  Biso 1.000000     C
    C   1.0     0.415956     0.175432     0.349176  Biso 1.000000     C
    C   1.0     0.915948     0.175425     0.349178  Biso 1.000000     C
    C   1.0     0.478794     0.127311     0.326453  Biso 1.000000     C
    C   1.0     0.978784     0.127298     0.326456  Biso 1.000000     C
    C   1.0     0.017449     0.048223     0.351306  Biso 1.000000     C
    C   1.0     0.517457     0.048240     0.351302  Biso 1.000000     C
    C   1.0     0.494333     0.014595     0.399554  Biso 1.000000     C
    C   1.0     0.994317     0.014580     0.399558  Biso 1.000000     C
    C   1.0     0.033325     0.934582     0.425615  Biso 1.000000     C
    C   1.0     0.533342     0.934601     0.425611  Biso 1.000000     C
    C   1.0     0.431099     0.061691     0.422126  Biso 1.000000     C
    C   1.0     0.931085     0.061683     0.422129  Biso 1.000000     C
    C   1.0     0.392656     0.140747     0.397268  Biso 1.000000     C
    C   1.0     0.892646     0.140742     0.397271  Biso 1.000000     C
    C   1.0     0.335343     0.331963     0.352520  Biso 1.000000     C
    C   1.0     0.835340     0.331961     0.352521  Biso 1.000000     C
    C   1.0     0.260800     0.353246     0.339017  Biso 1.000000     C
    C   1.0     0.760798     0.353246     0.339017  Biso 1.000000     C
    C   1.0     0.218972     0.425619     0.366307  Biso 1.000000     C
    C   1.0     0.718972     0.425622     0.366306  Biso 1.000000     C
    C   1.0     0.252500     0.477508     0.407507  Biso 1.000000     C
    C   1.0     0.752500     0.477512     0.407506  Biso 1.000000     C
    C   1.0     0.210251     0.550542     0.436142  Biso 1.000000     C
    C   1.0     0.710252     0.550550     0.436140  Biso 1.000000     C
    C   1.0     0.327839     0.457748     0.420433  Biso 1.000000     C
    C   1.0     0.827838     0.457750     0.420433  Biso 1.000000     C
    C   1.0     0.369056     0.385154     0.392876  Biso 1.000000     C
    C   1.0     0.869054     0.385152     0.392877  Biso 1.000000     C
    C   1.0     0.140426     0.283535     0.886735  Biso 1.000000     C
    C   1.0     0.640433     0.283530     0.886732  Biso 1.000000     C
    C   1.0     0.134974     0.275951     0.833619  Biso 1.000000     C
    C   1.0     0.634979     0.275949     0.833616  Biso 1.000000     C
    C   1.0     0.118252     0.366216     0.804766  Biso 1.000000     C
    C   1.0     0.618263     0.366217     0.804763  Biso 1.000000     C
    C   1.0     0.112751     0.358870     0.752737  Biso 1.000000     C
    C   1.0     0.612759     0.358873     0.752735  Biso 1.000000     C
    C   1.0     0.125446     0.261539     0.729067  Biso 1.000000     C
    C   1.0     0.625445     0.261540     0.729064  Biso 1.000000     C
    C   1.0     0.141890     0.171688     0.757802  Biso 1.000000     C
    C   1.0     0.641882     0.171686     0.757798  Biso 1.000000     C
    C   1.0     0.145973     0.178038     0.809895  Biso 1.000000     C
    C   1.0     0.645968     0.178033     0.809892  Biso 1.000000     C
    C   1.0     0.083402     0.175594     0.651073  Biso 1.000000     C
    C   1.0     0.583399     0.175598     0.651070  Biso 1.000000     C
    C   1.0     0.020587     0.127879     0.673997  Biso 1.000000     C
    C   1.0     0.520582     0.127886     0.673992  Biso 1.000000     C
    C   1.0     0.481542     0.049064     0.649289  Biso 1.000000     C
    C   1.0     0.981540     0.049058     0.649294  Biso 1.000000     C
    C   1.0     0.004243     0.015289     0.600975  Biso 1.000000     C
    C   1.0     0.504243     0.015292     0.600970  Biso 1.000000     C
    C   1.0     0.464828     0.935654     0.574998  Biso 1.000000     C
    C   1.0     0.964821     0.935654     0.575002  Biso 1.000000     C
    C   1.0     0.067462     0.061961     0.578204  Biso 1.000000     C
    C   1.0     0.567463     0.061963     0.578200  Biso 1.000000     C
    C   1.0     0.106292     0.140750     0.602920  Biso 1.000000     C
    C   1.0     0.606292     0.140753     0.602918  Biso 1.000000     C
    C   1.0     0.164352     0.331742     0.647542  Biso 1.000000     C
    C   1.0     0.664351     0.331744     0.647539  Biso 1.000000     C
    C   1.0     0.238811     0.353233     0.661155  Biso 1.000000     C
    C   1.0     0.738810     0.353231     0.661152  Biso 1.000000     C
    C   1.0     0.280561     0.425825     0.633959  Biso 1.000000     C
    C   1.0     0.780561     0.425822     0.633955  Biso 1.000000     C
    C   1.0     0.247051     0.477675     0.592715  Biso 1.000000     C
    C   1.0     0.747050     0.477676     0.592712  Biso 1.000000     C
    C   1.0     0.289115     0.551112     0.564212  Biso 1.000000     C
    C   1.0     0.789115     0.551113     0.564209  Biso 1.000000     C
    C   1.0     0.171835     0.457576     0.579629  Biso 1.000000     C
    C   1.0     0.671834     0.457581     0.579628  Biso 1.000000     C
    C   1.0     0.130690     0.384791     0.607097  Biso 1.000000     C
    C   1.0     0.630688     0.384796     0.607096  Biso 1.000000     C
    C   1.0     0.359584     0.782089     0.386723  Biso 1.000000     C
    C   1.0     0.859576     0.782086     0.386721  Biso 1.000000     C
    C   1.0     0.364858     0.774847     0.333590  Biso 1.000000     C
    C   1.0     0.864850     0.774844     0.333587  Biso 1.000000     C
    C   1.0     0.381508     0.865296     0.304870  Biso 1.000000     C
    C   1.0     0.881496     0.865295     0.304868  Biso 1.000000     C
    C   1.0     0.386887     0.858313     0.252828  Biso 1.000000     C
    C   1.0     0.886877     0.858314     0.252827  Biso 1.000000     C
    C   1.0     0.374144     0.761168     0.228998  Biso 1.000000     C
    C   1.0     0.874139     0.761167     0.228995  Biso 1.000000     C
    C   1.0     0.357693     0.671163     0.257596  Biso 1.000000     C
    C   1.0     0.857693     0.671161     0.257594  Biso 1.000000     C
    C   1.0     0.353732     0.677145     0.309705  Biso 1.000000     C
    C   1.0     0.853731     0.677141     0.309703  Biso 1.000000     C
    C   1.0     0.415853     0.675382     0.150885  Biso 1.000000     C
    C   1.0     0.915846     0.675382     0.150882  Biso 1.000000     C
    C   1.0     0.478689     0.627249     0.173663  Biso 1.000000     C
    C   1.0     0.978682     0.627248     0.173658  Biso 1.000000     C
    C   1.0     0.017387     0.548224     0.148841  Biso 1.000000     C
    C   1.0     0.517391     0.548227     0.148847  Biso 1.000000     C
    C   1.0     0.494329     0.514657     0.100564  Biso 1.000000     C
    C   1.0     0.994315     0.514653     0.100559  Biso 1.000000     C
    C   1.0     0.033412     0.434759     0.074510  Biso 1.000000     C
    C   1.0     0.533426     0.434767     0.074516  Biso 1.000000     C
    C   1.0     0.431091     0.561745     0.077940  Biso 1.000000     C
    C   1.0     0.931076     0.561744     0.077936  Biso 1.000000     C
    C   1.0     0.392607     0.640747     0.102767  Biso 1.000000     C
    C   1.0     0.892596     0.640748     0.102764  Biso 1.000000     C
    C   1.0     0.335200     0.831919     0.147513  Biso 1.000000     C
    C   1.0     0.835195     0.831921     0.147512  Biso 1.000000     C
    C   1.0     0.260662     0.853247     0.160983  Biso 1.000000     C
    C   1.0     0.760656     0.853245     0.160980  Biso 1.000000     C
    C   1.0     0.218849     0.925725     0.133694  Biso 1.000000     C
    C   1.0     0.718843     0.925724     0.133692  Biso 1.000000     C
    C   1.0     0.252388    -0.022339     0.092523  Biso 1.000000     C
    C   1.0     0.752383    -0.022337     0.092521  Biso 1.000000     C
    C   1.0     0.210193     0.050840     0.063889  Biso 1.000000     C
    C   1.0     0.710189     0.050843     0.063887  Biso 1.000000     C
    C   1.0     0.327716     0.957887     0.079635  Biso 1.000000     C
    C   1.0     0.827712     0.957892     0.079635  Biso 1.000000     C
    C   1.0     0.368919     0.885201     0.107191  Biso 1.000000     C
    C   1.0     0.868915     0.885206     0.107190  Biso 1.000000     C
    C   1.0     0.140079     0.782890     0.613306  Biso 1.000000     C
    C   1.0     0.640073     0.782889     0.613307  Biso 1.000000     C
    C   1.0     0.134834     0.775519     0.666437  Biso 1.000000     C
    C   1.0     0.634828     0.775516     0.666437  Biso 1.000000     C
    C   1.0     0.118222     0.865883     0.695218  Biso 1.000000     C
    C   1.0     0.618211     0.865879     0.695219  Biso 1.000000     C
    C   1.0     0.112861     0.858676     0.747254  Biso 1.000000     C
    C   1.0     0.612851     0.858672     0.747255  Biso 1.000000     C
    C   1.0     0.125588     0.761401     0.771006  Biso 1.000000     C
    C   1.0     0.625584     0.761398     0.771007  Biso 1.000000     C
    C   1.0     0.141977     0.671477     0.742349  Biso 1.000000     C
    C   1.0     0.641978     0.671475     0.742350  Biso 1.000000     C
    C   1.0     0.145929     0.677685     0.690245  Biso 1.000000     C
    C   1.0     0.645929     0.677684     0.690246  Biso 1.000000     C
    C   1.0     0.083506     0.675635     0.849025  Biso 1.000000     C
    C   1.0     0.583511     0.675628     0.849027  Biso 1.000000     C
    C   1.0     0.020648     0.627997     0.826089  Biso 1.000000     C
    C   1.0     0.520655     0.627982     0.826092  Biso 1.000000     C
    C   1.0     0.481590     0.549178     0.850792  Biso 1.000000     C
    C   1.0     0.981572     0.549198     0.850787  Biso 1.000000     C
    C   1.0     0.004276     0.515384     0.899122  Biso 1.000000     C
    C   1.0     0.504295     0.515366     0.899126  Biso 1.000000     C
    C   1.0     0.464828     0.435769     0.925109  Biso 1.000000     C
    C   1.0     0.964797     0.435794     0.925105  Biso 1.000000     C
    C   1.0     0.067528     0.561988     0.921911  Biso 1.000000     C
    C   1.0     0.567546     0.561977     0.921913  Biso 1.000000     C
    C   1.0     0.106386     0.640756     0.897197  Biso 1.000000     C
    C   1.0     0.606397     0.640751     0.897199  Biso 1.000000     C
    C   1.0     0.164497     0.831775     0.852517  Biso 1.000000     C
    C   1.0     0.664494     0.831776     0.852517  Biso 1.000000     C
    C   1.0     0.238955     0.853322     0.838941  Biso 1.000000     C
    C   1.0     0.738950     0.853330     0.838939  Biso 1.000000     C
    C   1.0     0.280682     0.925995     0.866118  Biso 1.000000     C
    C   1.0     0.780675     0.926005     0.866115  Biso 1.000000     C
    C   1.0     0.247152    -0.022149     0.907313  Biso 1.000000     C
    C   1.0     0.747146    -0.022142     0.907311  Biso 1.000000     C
    C   1.0     0.289141     0.051422     0.935794  Biso 1.000000     C
    C   1.0     0.789134     0.051431     0.935792  Biso 1.000000     C
    C   1.0     0.171940     0.957721     0.920358  Biso 1.000000     C
    C   1.0     0.671936     0.957722     0.920359  Biso 1.000000     C
    C   1.0     0.130819     0.884873     0.892908  Biso 1.000000     C
    C   1.0     0.630816     0.884871     0.892909  Biso 1.000000     C
    N   1.0     0.352590     0.290786     0.069690  Biso 1.000000     N
    N   1.0     0.852581     0.290784     0.069692  Biso 1.000000     N
    N   1.0     0.376898     0.255830     0.324518  Biso 1.000000     N
    N   1.0     0.876894     0.255825     0.324519  Biso 1.000000     N
    N   1.0     0.064972     0.869544     0.448376  Biso 1.000000     N
    N   1.0     0.564994     0.869567     0.448372  Biso 1.000000     N
    N   1.0     0.176774     0.609895     0.460969  Biso 1.000000     N
    N   1.0     0.676778     0.609906     0.460966  Biso 1.000000     N
    N   1.0     0.146793     0.291620     0.930392  Biso 1.000000     N
    N   1.0     0.646802     0.291614     0.930389  Biso 1.000000     N
    N   1.0     0.122819     0.255727     0.675598  Biso 1.000000     N
    N   1.0     0.622816     0.255731     0.675595  Biso 1.000000     N
    N   1.0     0.432846     0.870990     0.552245  Biso 1.000000     N
    N   1.0     0.932837     0.870994     0.552247  Biso 1.000000     N
    N   1.0     0.322357     0.610874     0.539476  Biso 1.000000     N
    N   1.0     0.822357     0.610875     0.539474  Biso 1.000000     N
    N   1.0     0.353428     0.789937     0.430395  Biso 1.000000     N
    N   1.0     0.853420     0.789933     0.430393  Biso 1.000000     N
    N   1.0     0.376743     0.755711     0.175520  Biso 1.000000     N
    N   1.0     0.876738     0.755712     0.175518  Biso 1.000000     N
    N   1.0     0.065155     0.369878     0.051742  Biso 1.000000     N
    N   1.0     0.565173     0.369890     0.051746  Biso 1.000000     N
    N   1.0     0.176792     0.110350     0.039063  Biso 1.000000     N
    N   1.0     0.676788     0.110353     0.039061  Biso 1.000000     N
    N   1.0     0.146205     0.790706     0.569627  Biso 1.000000     N
    N   1.0     0.646200     0.790706     0.569628  Biso 1.000000     N
    N   1.0     0.122979     0.755703     0.824484  Biso 1.000000     N
    N   1.0     0.622978     0.755701     0.824484  Biso 1.000000     N
    N   1.0     0.432774     0.371218     0.947888  Biso 1.000000     N
    N   1.0     0.932736     0.371249     0.947884  Biso 1.000000     N
    N   1.0     0.322270     0.111342     0.960518  Biso 1.000000     N
    N   1.0     0.822262     0.111351     0.960515  Biso 1.000000     N
    F   1.0     0.412576     0.101933     0.856101  Biso 1.000000     F
    F   1.0     0.912574     0.101933     0.856101  Biso 1.000000     F
    F   1.0     0.025053     0.110876     0.900120  Biso 1.000000     F
    F   1.0     0.525050     0.110876     0.900120  Biso 1.000000     F
    F   1.0     0.459328     0.951885     0.895754  Biso 1.000000     F
    F   1.0     0.959325     0.951885     0.895754  Biso 1.000000     F
    F   1.0     0.018836     0.017790     0.824659  Biso 1.000000     F
    F   1.0     0.518833     0.017790     0.824659  Biso 1.000000     F
    F   1.0     0.087392     0.101899     0.143896  Biso 1.000000     F
    F   1.0     0.587389     0.101899     0.143896  Biso 1.000000     F
    F   1.0     0.474921     0.110914     0.099876  Biso 1.000000     F
    F   1.0     0.974918     0.110914     0.099876  Biso 1.000000     F
    F   1.0     0.040681     0.951882     0.104257  Biso 1.000000     F
    F   1.0     0.540678     0.951882     0.104257  Biso 1.000000     F
    F   1.0     0.481171     0.017798     0.175351  Biso 1.000000     F
    F   1.0     0.981169     0.017798     0.175351  Biso 1.000000     F
    F   1.0     0.411906     0.599848     0.643849  Biso 1.000000     F
    F   1.0     0.911903     0.599848     0.643849  Biso 1.000000     F
    F   1.0     0.022433     0.608950     0.597923  Biso 1.000000     F
    F   1.0     0.522431     0.608950     0.597923  Biso 1.000000     F
    F   1.0     0.459177     0.449406     0.604586  Biso 1.000000     F
    F   1.0     0.959174     0.449406     0.604586  Biso 1.000000     F
    F   1.0     0.019090     0.519857     0.674986  Biso 1.000000     F
    F   1.0     0.519087     0.519857     0.674986  Biso 1.000000     F
    F   1.0     0.088044     0.599826     0.356147  Biso 1.000000     F
    F   1.0     0.588042     0.599826     0.356147  Biso 1.000000     F
    F   1.0     0.477517     0.608960     0.402068  Biso 1.000000     F
    F   1.0     0.977514     0.608960     0.402068  Biso 1.000000     F
    F   1.0     0.040829     0.449387     0.395424  Biso 1.000000     F
    F   1.0     0.540826     0.449387     0.395424  Biso 1.000000     F
    F   1.0     0.480909     0.519877     0.325009  Biso 1.000000     F
    F   1.0     0.980906     0.519877     0.325009  Biso 1.000000     F
   Ag   1.0     0.374927     0.249879     0.990299  Biso 1.000000    Ag
   Ag   1.0     0.874906     0.249898     0.990298  Biso 1.000000    Ag
   Ag   1.0     0.123681     0.248832     0.009538  Biso 1.000000    Ag
   Ag   1.0     0.623688     0.248845     0.009536  Biso 1.000000    Ag
   Ag   1.0     0.375568     0.749116     0.509877  Biso 1.000000    Ag
   Ag   1.0     0.875563     0.749124     0.509875  Biso 1.000000    Ag
   Ag   1.0     0.123145     0.747887     0.490446  Biso 1.000000    Ag
   Ag   1.0     0.623155     0.747902     0.490444  Biso 1.000000    Ag
