#======================================================================

# CRYSTAL DATA

#----------------------------------------------------------------------

data_VESTA_phase_1


_pd_phase_name                         MOF
_cell_length_a                         18.04100
_cell_length_b                         12.73300
_cell_length_c                         26.47100
_cell_angle_alpha                      89.99800
_cell_angle_beta                       89.99300
_cell_angle_gamma                      89.84000
_symmetry_space_group_name_H-M         "P 1"
_symmetry_Int_Tables_number            1

loop_
_symmetry_equiv_pos_as_xyz
   "x, y, z"

loop_
   _atom_site_label
   _atom_site_occupancy
   _atom_site_fract_x
   _atom_site_fract_y
   _atom_site_fract_z
   _atom_site_adp_type
   _atom_site_B_iso_or_equiv
   _atom_site_type_symbol
    H   1.0     0.430765     0.144189     0.171020  Biso 1.000000     H
    H   1.0     0.930770     0.144189     0.171019  Biso 1.000000     H
    H   1.0     0.421136     0.151542     0.264557  Biso 1.000000     H
    H   1.0     0.921140     0.151542     0.264556  Biso 1.000000     H
    H   1.0     0.342982     0.831495     0.267524  Biso 1.000000     H
    H   1.0     0.842993     0.831492     0.267523  Biso 1.000000     H
    H   1.0     0.355930     0.822112     0.173927  Biso 1.000000     H
    H   1.0     0.855943     0.822109     0.173927  Biso 1.000000     H
    H   1.0     0.265836     0.109057     0.284369  Biso 1.000000     H
    H   1.0     0.765843     0.109059     0.284368  Biso 1.000000     H
    H   1.0     0.194420     0.245845     0.327620  Biso 1.000000     H
    H   1.0     0.694430     0.245852     0.327619  Biso 1.000000     H
    H   1.0     0.325794     0.200923     0.462753  Biso 1.000000     H
    H   1.0     0.825805     0.200928     0.462752  Biso 1.000000     H
    H   1.0     0.397323     0.062047     0.419611  Biso 1.000000     H
    H   1.0     0.897330     0.062047     0.419610  Biso 1.000000     H
    H   1.0     0.322626     0.867670     0.396945  Biso 1.000000     H
    H   1.0     0.822626     0.867668     0.396942  Biso 1.000000     H
    H   1.0     0.394897     0.736543     0.445992  Biso 1.000000     H
    H   1.0     0.894893     0.736538     0.445990  Biso 1.000000     H
    H   1.0     0.091727     0.814251     0.360096  Biso 1.000000     H
    H   1.0     0.591728     0.814255     0.360093  Biso 1.000000     H
    H   1.0     0.018470     0.946213     0.311499  Biso 1.000000     H
    H   1.0     0.518468     0.946215     0.311496  Biso 1.000000     H
    H   1.0     0.066357     0.142661     0.827295  Biso 1.000000     H
    H   1.0     0.566402     0.142674     0.827304  Biso 1.000000     H
    H   1.0     0.076321     0.147999     0.733714  Biso 1.000000     H
    H   1.0     0.576357     0.148015     0.733724  Biso 1.000000     H
    H   1.0     0.159342     0.829654     0.732717  Biso 1.000000     H
    H   1.0     0.659318     0.829640     0.732716  Biso 1.000000     H
    H   1.0     0.146603     0.822484     0.826316  Biso 1.000000     H
    H   1.0     0.646582     0.822464     0.826315  Biso 1.000000     H
    H   1.0     0.233895     0.104510     0.714458  Biso 1.000000     H
    H   1.0     0.733902     0.104516     0.714458  Biso 1.000000     H
    H   1.0     0.304743     0.241090     0.671048  Biso 1.000000     H
    H   1.0     0.804746     0.241096     0.671045  Biso 1.000000     H
    H   1.0     0.173657     0.195190     0.535921  Biso 1.000000     H
    H   1.0     0.673645     0.195199     0.535924  Biso 1.000000     H
    H   1.0     0.102703     0.056564     0.579241  Biso 1.000000     H
    H   1.0     0.602695     0.056574     0.579247  Biso 1.000000     H
    H   1.0     0.176398     0.862811     0.602234  Biso 1.000000     H
    H   1.0     0.676401     0.862815     0.602239  Biso 1.000000     H
    H   1.0     0.103511     0.731754     0.553841  Biso 1.000000     H
    H   1.0     0.603513     0.731762     0.553844  Biso 1.000000     H
    H   1.0     0.407984     0.810961     0.641136  Biso 1.000000     H
    H   1.0     0.907988     0.810945     0.641137  Biso 1.000000     H
    H   1.0     0.481733     0.942884     0.688888  Biso 1.000000     H
    H   1.0     0.981736     0.942871     0.688887  Biso 1.000000     H
    H   1.0     0.431692     0.644353     0.328774  Biso 1.000000     H
    H   1.0     0.931694     0.644346     0.328772  Biso 1.000000     H
    H   1.0     0.422363     0.651770     0.235227  Biso 1.000000     H
    H   1.0     0.922364     0.651765     0.235224  Biso 1.000000     H
    H   1.0     0.342722     0.332489     0.232194  Biso 1.000000     H
    H   1.0     0.842737     0.332477     0.232189  Biso 1.000000     H
    H   1.0     0.355202     0.323066     0.325816  Biso 1.000000     H
    H   1.0     0.855219     0.323051     0.325811  Biso 1.000000     H
    H   1.0     0.266112     0.608999     0.215331  Biso 1.000000     H
    H   1.0     0.766120     0.608995     0.215329  Biso 1.000000     H
    H   1.0     0.194421     0.745504     0.172075  Biso 1.000000     H
    H   1.0     0.694434     0.745510     0.172076  Biso 1.000000     H
    H   1.0     0.326263     0.701640     0.037049  Biso 1.000000     H
    H   1.0     0.826273     0.701647     0.037049  Biso 1.000000     H
    H   1.0     0.398055     0.563045     0.080196  Biso 1.000000     H
    H   1.0     0.898060     0.563042     0.080193  Biso 1.000000     H
    H   1.0     0.323519     0.369211     0.102439  Biso 1.000000     H
    H   1.0     0.823520     0.369205     0.102436  Biso 1.000000     H
    H   1.0     0.395781     0.238006     0.053438  Biso 1.000000     H
    H   1.0     0.895779     0.237998     0.053433  Biso 1.000000     H
    H   1.0     0.092212     0.314304     0.139996  Biso 1.000000     H
    H   1.0     0.592214     0.314313     0.140004  Biso 1.000000     H
    H   1.0     0.018944     0.446144     0.188624  Biso 1.000000     H
    H   1.0     0.518943     0.446151     0.188631  Biso 1.000000     H
    H   1.0     0.067667     0.642149     0.672669  Biso 1.000000     H
    H   1.0     0.567631     0.642152     0.672664  Biso 1.000000     H
    H   1.0     0.077181     0.647698     0.766244  Biso 1.000000     H
    H   1.0     0.577147     0.647705     0.766239  Biso 1.000000     H
    H   1.0     0.158899     0.328688     0.767667  Biso 1.000000     H
    H   1.0     0.658907     0.328717     0.767663  Biso 1.000000     H
    H   1.0     0.146553     0.321318     0.674043  Biso 1.000000     H
    H   1.0     0.646564     0.321344     0.674037  Biso 1.000000     H
    H   1.0     0.233869     0.604310     0.785760  Biso 1.000000     H
    H   1.0     0.733856     0.604324     0.785754  Biso 1.000000     H
    H   1.0     0.304424     0.741149     0.829114  Biso 1.000000     H
    H   1.0     0.804419     0.741154     0.829108  Biso 1.000000     H
    H   1.0     0.173187     0.695188     0.964200  Biso 1.000000     H
    H   1.0     0.673183     0.695200     0.964195  Biso 1.000000     H
    H   1.0     0.102447     0.556344     0.920901  Biso 1.000000     H
    H   1.0     0.602435     0.556365     0.920896  Biso 1.000000     H
    H   1.0     0.176100     0.362743     0.898144  Biso 1.000000     H
    H   1.0     0.676097     0.362759     0.898134  Biso 1.000000     H
    H   1.0     0.102957     0.232175     0.946672  Biso 1.000000     H
    H   1.0     0.602963     0.232180     0.946662  Biso 1.000000     H
    H   1.0     0.407711     0.311156     0.859063  Biso 1.000000     H
    H   1.0     0.907722     0.311152     0.859061  Biso 1.000000     H
    H   1.0     0.481739     0.442614     0.811150  Biso 1.000000     H
    H   1.0     0.981758     0.442599     0.811147  Biso 1.000000     H
    C   1.0     0.398484     0.977242     0.113464  Biso 1.000000     C
    C   1.0     0.898493     0.977240     0.113463  Biso 1.000000     C
    C   1.0     0.394988     0.982170     0.166850  Biso 1.000000     C
    C   1.0     0.894997     0.982168     0.166849  Biso 1.000000     C
    C   1.0     0.413047     0.075657     0.192258  Biso 1.000000     C
    C   1.0     0.913053     0.075656     0.192257  Biso 1.000000     C
    C   1.0     0.407244     0.079620     0.244462  Biso 1.000000     C
    C   1.0     0.907249     0.079620     0.244461  Biso 1.000000     C
    C   1.0     0.382758     0.991576     0.271385  Biso 1.000000     C
    C   1.0     0.882765     0.991575     0.271384  Biso 1.000000     C
    C   1.0     0.364654     0.898119     0.246226  Biso 1.000000     C
    C   1.0     0.864663     0.898117     0.246225  Biso 1.000000     C
    C   1.0     0.371128     0.893333     0.194060  Biso 1.000000     C
    C   1.0     0.871138     0.893330     0.194060  Biso 1.000000     C
    C   1.0     0.336007     0.073457     0.349312  Biso 1.000000     C
    C   1.0     0.836014     0.073459     0.349310  Biso 1.000000     C
    C   1.0     0.278622     0.127242     0.323621  Biso 1.000000     C
    C   1.0     0.778629     0.127246     0.323620  Biso 1.000000     C
    C   1.0     0.238331     0.204925     0.347946  Biso 1.000000     C
    C   1.0     0.738340     0.204930     0.347945  Biso 1.000000     C
    C   1.0     0.254139     0.231589     0.398609  Biso 1.000000     C
    C   1.0     0.754150     0.231596     0.398607  Biso 1.000000     C
    C   1.0     0.213238     0.309642     0.424310  Biso 1.000000     C
    C   1.0     0.713252     0.309652     0.424308  Biso 1.000000     C
    C   1.0     0.312109     0.178948     0.424102  Biso 1.000000     C
    C   1.0     0.812118     0.178952     0.424101  Biso 1.000000     C
    C   1.0     0.352281     0.101361     0.399808  Biso 1.000000     C
    C   1.0     0.852289     0.101363     0.399807  Biso 1.000000     C
    C   1.0     0.417093     0.917764     0.352846  Biso 1.000000     C
    C   1.0     0.917096     0.917762     0.352846  Biso 1.000000     C
    C   1.0     0.381971     0.858697     0.390606  Biso 1.000000     C
    C   1.0     0.881972     0.858695     0.390604  Biso 1.000000     C
    C   1.0     0.422237     0.784409     0.417522  Biso 1.000000     C
    C   1.0     0.922236     0.784405     0.417520  Biso 1.000000     C
    C   1.0     0.498060     0.768973     0.406634  Biso 1.000000     C
    C   1.0     0.998059     0.768968     0.406634  Biso 1.000000     C
    C   1.0     0.033074     0.826781     0.368013  Biso 1.000000     C
    C   1.0     0.533076     0.826785     0.368012  Biso 1.000000     C
    C   1.0     0.492117     0.900556     0.341290  Biso 1.000000     C
    C   1.0     0.992121     0.900554     0.341292  Biso 1.000000     C
    C   1.0     0.039456     0.694050     0.434435  Biso 1.000000     C
    C   1.0     0.539463     0.694059     0.434435  Biso 1.000000     C
    C   1.0     0.101288     0.977906     0.885841  Biso 1.000000     C
    C   1.0     0.601306     0.977902     0.885846  Biso 1.000000     C
    C   1.0     0.104952     0.981752     0.832439  Biso 1.000000     C
    C   1.0     0.604964     0.981748     0.832444  Biso 1.000000     C
    C   1.0     0.085390     0.074125     0.806482  Biso 1.000000     C
    C   1.0     0.585417     0.074131     0.806489  Biso 1.000000     C
    C   1.0     0.091273     0.076932     0.754259  Biso 1.000000     C
    C   1.0     0.591296     0.076940     0.754266  Biso 1.000000     C
    C   1.0     0.117184     0.988793     0.727903  Biso 1.000000     C
    C   1.0     0.617189     0.988795     0.727906  Biso 1.000000     C
    C   1.0     0.136716     0.896422     0.753582  Biso 1.000000     C
    C   1.0     0.636704     0.896414     0.753584  Biso 1.000000     C
    C   1.0     0.130314     0.892845     0.805775  Biso 1.000000     C
    C   1.0     0.630305     0.892833     0.805776  Biso 1.000000     C
    C   1.0     0.163770     0.068701     0.649608  Biso 1.000000     C
    C   1.0     0.663770     0.068709     0.649611  Biso 1.000000     C
    C   1.0     0.221019     0.122529     0.675191  Biso 1.000000     C
    C   1.0     0.721021     0.122536     0.675191  Biso 1.000000     C
    C   1.0     0.260986     0.200076     0.650773  Biso 1.000000     C
    C   1.0     0.760987     0.200083     0.650772  Biso 1.000000     C
    C   1.0     0.245018     0.226549     0.600085  Biso 1.000000     C
    C   1.0     0.745014     0.226556     0.600085  Biso 1.000000     C
    C   1.0     0.285355     0.304952     0.574463  Biso 1.000000     C
    C   1.0     0.785350     0.304956     0.574461  Biso 1.000000     C
    C   1.0     0.187378     0.173553     0.574628  Biso 1.000000     C
    C   1.0     0.687370     0.173562     0.574630  Biso 1.000000     C
    C   1.0     0.147531     0.096072     0.599016  Biso 1.000000     C
    C   1.0     0.647525     0.096081     0.599020  Biso 1.000000     C
    C   1.0     0.082527     0.913704     0.646855  Biso 1.000000     C
    C   1.0     0.582529     0.913711     0.646858  Biso 1.000000     C
    C   1.0     0.117172     0.854110     0.608976  Biso 1.000000     C
    C   1.0     0.617175     0.854116     0.608979  Biso 1.000000     C
    C   1.0     0.076591     0.779880     0.582470  Biso 1.000000     C
    C   1.0     0.576593     0.779889     0.582472  Biso 1.000000     C
    C   1.0     0.000954     0.764901     0.593905  Biso 1.000000     C
    C   1.0     0.500954     0.764914     0.593906  Biso 1.000000     C
    C   1.0     0.466463     0.823134     0.632700  Biso 1.000000     C
    C   1.0     0.966467     0.823120     0.632700  Biso 1.000000     C
    C   1.0     0.007716     0.896880     0.658992  Biso 1.000000     C
    C   1.0     0.507717     0.896892     0.658993  Biso 1.000000     C
    C   1.0     0.459225     0.690121     0.566476  Biso 1.000000     C
    C   1.0     0.959228     0.690108     0.566475  Biso 1.000000     C
    C   1.0     0.398274     0.477783     0.386325  Biso 1.000000     C
    C   1.0     0.898284     0.477770     0.386321  Biso 1.000000     C
    C   1.0     0.395016     0.482739     0.332933  Biso 1.000000     C
    C   1.0     0.895026     0.482727     0.332929  Biso 1.000000     C
    C   1.0     0.413650     0.576006     0.307533  Biso 1.000000     C
    C   1.0     0.913655     0.575997     0.307530  Biso 1.000000     C
    C   1.0     0.408045     0.580007     0.255319  Biso 1.000000     C
    C   1.0     0.908049     0.579999     0.255316  Biso 1.000000     C
    C   1.0     0.383233     0.492198     0.228379  Biso 1.000000     C
    C   1.0     0.883240     0.492190     0.228375  Biso 1.000000     C
    C   1.0     0.364609     0.398929     0.253520  Biso 1.000000     C
    C   1.0     0.864621     0.398918     0.253515  Biso 1.000000     C
    C   1.0     0.370829     0.394123     0.305697  Biso 1.000000     C
    C   1.0     0.870843     0.394110     0.305692  Biso 1.000000     C
    C   1.0     0.336532     0.573968     0.150438  Biso 1.000000     C
    C   1.0     0.836539     0.573965     0.150435  Biso 1.000000     C
    C   1.0     0.278945     0.627371     0.176103  Biso 1.000000     C
    C   1.0     0.778953     0.627369     0.176102  Biso 1.000000     C
    C   1.0     0.238504     0.704887     0.151777  Biso 1.000000     C
    C   1.0     0.738516     0.704891     0.151777  Biso 1.000000     C
    C   1.0     0.254366     0.731759     0.101143  Biso 1.000000     C
    C   1.0     0.754378     0.731766     0.101144  Biso 1.000000     C
    C   1.0     0.213333     0.809680     0.075463  Biso 1.000000     C
    C   1.0     0.713348     0.809694     0.075466  Biso 1.000000     C
    C   1.0     0.312542     0.679500     0.075675  Biso 1.000000     C
    C   1.0     0.812552     0.679504     0.075675  Biso 1.000000     C
    C   1.0     0.352861     0.602081     0.099972  Biso 1.000000     C
    C   1.0     0.852868     0.602081     0.099969  Biso 1.000000     C
    C   1.0     0.417776     0.418480     0.146923  Biso 1.000000     C
    C   1.0     0.917779     0.418473     0.146918  Biso 1.000000     C
    C   1.0     0.382789     0.359872     0.108952  Biso 1.000000     C
    C   1.0     0.882791     0.359866     0.108948  Biso 1.000000     C
    C   1.0     0.423049     0.285567     0.082050  Biso 1.000000     C
    C   1.0     0.923048     0.285559     0.082045  Biso 1.000000     C
    C   1.0     0.498753     0.269697     0.093143  Biso 1.000000     C
    C   1.0     0.998752     0.269687     0.093138  Biso 1.000000     C
    C   1.0     0.033635     0.327065     0.131956  Biso 1.000000     C
    C   1.0     0.533637     0.327073     0.131963  Biso 1.000000     C
    C   1.0     0.492677     0.400825     0.158691  Biso 1.000000     C
    C   1.0     0.992680     0.400819     0.158684  Biso 1.000000     C
    C   1.0     0.040113     0.194771     0.065320  Biso 1.000000     C
    C   1.0     0.540119     0.194782     0.065324  Biso 1.000000     C
    C   1.0     0.102332     0.477204     0.614299  Biso 1.000000     C
    C   1.0     0.602323     0.477217     0.614294  Biso 1.000000     C
    C   1.0     0.105601     0.480904     0.667714  Biso 1.000000     C
    C   1.0     0.605591     0.480919     0.667709  Biso 1.000000     C
    C   1.0     0.086281     0.573501     0.693568  Biso 1.000000     C
    C   1.0     0.586256     0.573510     0.693563  Biso 1.000000     C
    C   1.0     0.091938     0.576438     0.745792  Biso 1.000000     C
    C   1.0     0.591912     0.576449     0.745787  Biso 1.000000     C
    C   1.0     0.117382     0.488199     0.772279  Biso 1.000000     C
    C   1.0     0.617368     0.488216     0.772274  Biso 1.000000     C
    C   1.0     0.136635     0.395566     0.746703  Biso 1.000000     C
    C   1.0     0.636634     0.395588     0.746698  Biso 1.000000     C
    C   1.0     0.130440     0.391862     0.694500  Biso 1.000000     C
    C   1.0     0.630441     0.391883     0.694494  Biso 1.000000     C
    C   1.0     0.163636     0.568472     0.850568  Biso 1.000000     C
    C   1.0     0.663623     0.568487     0.850562  Biso 1.000000     C
    C   1.0     0.220885     0.622347     0.825007  Biso 1.000000     C
    C   1.0     0.720874     0.622360     0.825001  Biso 1.000000     C
    C   1.0     0.260695     0.700073     0.849396  Biso 1.000000     C
    C   1.0     0.760688     0.700081     0.849390  Biso 1.000000     C
    C   1.0     0.244596     0.726610     0.900057  Biso 1.000000     C
    C   1.0     0.744592     0.726617     0.900052  Biso 1.000000     C
    C   1.0     0.284780     0.805196     0.925647  Biso 1.000000     C
    C   1.0     0.784782     0.805195     0.925642  Biso 1.000000     C
    C   1.0     0.186983     0.673526     0.925508  Biso 1.000000     C
    C   1.0     0.686977     0.673538     0.925502  Biso 1.000000     C
    C   1.0     0.147259     0.595910     0.901130  Biso 1.000000     C
    C   1.0     0.647249     0.595927     0.901125  Biso 1.000000     C
    C   1.0     0.082400     0.413490     0.853344  Biso 1.000000     C
    C   1.0     0.582390     0.413505     0.853340  Biso 1.000000     C
    C   1.0     0.116888     0.354091     0.891345  Biso 1.000000     C
    C   1.0     0.616884     0.354103     0.891337  Biso 1.000000     C
    C   1.0     0.076158     0.280152     0.917940  Biso 1.000000     C
    C   1.0     0.576159     0.280160     0.917933  Biso 1.000000     C
    C   1.0     0.000536     0.265286     0.906456  Biso 1.000000     C
    C   1.0     0.500536     0.265293     0.906453  Biso 1.000000     C
    C   1.0     0.466197     0.323267     0.867514  Biso 1.000000     C
    C   1.0     0.966207     0.323260     0.867514  Biso 1.000000     C
    C   1.0     0.007606     0.396738     0.841141  Biso 1.000000     C
    C   1.0     0.507594     0.396750     0.841139  Biso 1.000000     C
    C   1.0     0.458654     0.190864     0.934007  Biso 1.000000     C
    C   1.0     0.958653     0.190863     0.934010  Biso 1.000000     C
    N   1.0     0.401844     0.970161     0.069523  Biso 1.000000     N
    N   1.0     0.901852     0.970158     0.069522  Biso 1.000000     N
    N   1.0     0.179827     0.372572     0.447116  Biso 1.000000     N
    N   1.0     0.679842     0.372584     0.447113  Biso 1.000000     N
    N   1.0     0.072984     0.633204     0.458267  Biso 1.000000     N
    N   1.0     0.572993     0.633216     0.458268  Biso 1.000000     N
    N   1.0     0.376867     0.995061     0.325105  Biso 1.000000     N
    N   1.0     0.876872     0.995061     0.325105  Biso 1.000000     N
    N   1.0     0.097772     0.971621     0.929801  Biso 1.000000     N
    N   1.0     0.597795     0.971621     0.929806  Biso 1.000000     N
    N   1.0     0.318317     0.368463     0.551878  Biso 1.000000     N
    N   1.0     0.818311     0.368464     0.551873  Biso 1.000000     N
    N   1.0     0.425364     0.629452     0.542919  Biso 1.000000     N
    N   1.0     0.925368     0.629439     0.542918  Biso 1.000000     N
    N   1.0     0.122988     0.991038     0.674126  Biso 1.000000     N
    N   1.0     0.622991     0.991044     0.674130  Biso 1.000000     N
    N   1.0     0.401441     0.470679     0.430271  Biso 1.000000     N
    N   1.0     0.901450     0.470665     0.430267  Biso 1.000000     N
    N   1.0     0.179822     0.872571     0.052701  Biso 1.000000     N
    N   1.0     0.679841     0.872592     0.052706  Biso 1.000000     N
    N   1.0     0.073549     0.133911     0.041432  Biso 1.000000     N
    N   1.0     0.573555     0.133925     0.041435  Biso 1.000000     N
    N   1.0     0.377527     0.495747     0.174645  Biso 1.000000     N
    N   1.0     0.877532     0.495741     0.174641  Biso 1.000000     N
    N   1.0     0.099171     0.471382     0.570313  Biso 1.000000     N
    N   1.0     0.599164     0.471393     0.570307  Biso 1.000000     N
    N   1.0     0.317598     0.868912     0.948184  Biso 1.000000     N
    N   1.0     0.817605     0.868905     0.948181  Biso 1.000000     N
    N   1.0     0.424659     0.130537     0.957683  Biso 1.000000     N
    N   1.0     0.924654     0.130539     0.957685  Biso 1.000000     N
    N   1.0     0.123007     0.490648     0.826046  Biso 1.000000     N
    N   1.0     0.622992     0.490666     0.826041  Biso 1.000000     N
    O   1.0     0.156768     0.142156     0.160739  Biso 1.000000     O
    O   1.0     0.656768     0.142154     0.160741  Biso 1.000000     O
    O   1.0     0.265698     0.204017     0.204423  Biso 1.000000     O
    O   1.0     0.765699     0.204015     0.204424  Biso 1.000000     O
    O   1.0     0.212264     0.307306     0.137230  Biso 1.000000     O
    O   1.0     0.712268     0.307297     0.137228  Biso 1.000000     O
    O   1.0     0.275066     0.144509     0.117971  Biso 1.000000     O
    O   1.0     0.775064     0.144492     0.117974  Biso 1.000000     O
    O   1.0     0.344450     0.137782     0.837354  Biso 1.000000     O
    O   1.0     0.844459     0.137789     0.837352  Biso 1.000000     O
    O   1.0     0.234179     0.195427     0.793716  Biso 1.000000     O
    O   1.0     0.734183     0.195429     0.793719  Biso 1.000000     O
    O   1.0     0.287701     0.303835     0.858817  Biso 1.000000     O
    O   1.0     0.787707     0.303840     0.858817  Biso 1.000000     O
    O   1.0     0.226990     0.141658     0.881138  Biso 1.000000     O
    O   1.0     0.727005     0.141660     0.881141  Biso 1.000000     O
    O   1.0     0.155298     0.640989     0.337346  Biso 1.000000     O
    O   1.0     0.655304     0.640979     0.337346  Biso 1.000000     O
    O   1.0     0.265887     0.702008     0.295425  Biso 1.000000     O
    O   1.0     0.765891     0.702008     0.295425  Biso 1.000000     O
    O   1.0     0.211762     0.804446     0.362675  Biso 1.000000     O
    O   1.0     0.711761     0.804441     0.362675  Biso 1.000000     O
    O   1.0     0.272394     0.639878     0.381578  Biso 1.000000     O
    O   1.0     0.772399     0.639877     0.381578  Biso 1.000000     O
    O   1.0     0.345367     0.639864     0.664698  Biso 1.000000     O
    O   1.0     0.845366     0.639861     0.664698  Biso 1.000000     O
    O   1.0     0.234411     0.697640     0.707520  Biso 1.000000     O
    O   1.0     0.734409     0.697639     0.707519  Biso 1.000000     O
    O   1.0     0.287554     0.804088     0.641480  Biso 1.000000     O
    O   1.0     0.787555     0.804087     0.641480  Biso 1.000000     O
    O   1.0     0.228054     0.640049     0.620673  Biso 1.000000     O
    O   1.0     0.728054     0.640049     0.620672  Biso 1.000000     O
   Cl   1.0     0.227250     0.198639     0.154959  Biso 1.000000    Cl
   Cl   1.0     0.727251     0.198632     0.154959  Biso 1.000000    Cl
   Cl   1.0     0.273551     0.193846     0.842909  Biso 1.000000    Cl
   Cl   1.0     0.773560     0.193850     0.842910  Biso 1.000000    Cl
   Cl   1.0     0.226120     0.695982     0.344379  Biso 1.000000    Cl
   Cl   1.0     0.726124     0.695978     0.344379  Biso 1.000000    Cl
   Cl   1.0     0.274068     0.694585     0.658432  Biso 1.000000    Cl
   Cl   1.0     0.774067     0.694584     0.658432  Biso 1.000000    Cl
   Ag   1.0     0.375863    -0.010498     0.988815  Biso 1.000000    Ag
   Ag   1.0     0.875866    -0.010504     0.988814  Biso 1.000000    Ag
   Ag   1.0     0.122004    -0.008170     0.010510  Biso 1.000000    Ag
   Ag   1.0     0.622020    -0.008150     0.010515  Biso 1.000000    Ag
   Ag   1.0     0.376448     0.489119     0.511074  Biso 1.000000    Ag
   Ag   1.0     0.876450     0.489112     0.511068  Biso 1.000000    Ag
   Ag   1.0     0.122124     0.491864     0.489467  Biso 1.000000    Ag
   Ag   1.0     0.622135     0.491871     0.489463  Biso 1.000000    Ag
