#======================================================================

# CRYSTAL DATA

#----------------------------------------------------------------------

data_VESTA_phase_1


_pd_phase_name                         MOF
_cell_length_a                         23.57700
_cell_length_b                         12.09500
_cell_length_c                         12.91800
_cell_angle_alpha                      109.01900
_cell_angle_beta                       107.42200
_cell_angle_gamma                      108.20100
_symmetry_space_group_name_H-M         "P 1"
_symmetry_Int_Tables_number            1

loop_
_symmetry_equiv_pos_as_xyz
   "x, y, z"

loop_
   _atom_site_label
   _atom_site_occupancy
   _atom_site_fract_x
   _atom_site_fract_y
   _atom_site_fract_z
   _atom_site_adp_type
   _atom_site_B_iso_or_equiv
   _atom_site_type_symbol
    H   1.0     0.313508     0.334768     0.086430  Biso 1.000000     H
    H   1.0     0.813364     0.334517     0.086511  Biso 1.000000     H
    H   1.0     0.144175     0.379247     0.752268  Biso 1.000000     H
    H   1.0     0.644117     0.379161     0.752411  Biso 1.000000     H
    H   1.0     0.125924     0.384071     0.876605  Biso 1.000000     H
    H   1.0     0.625798     0.383854     0.876654  Biso 1.000000     H
    H   1.0     0.030241     0.197868     0.679772  Biso 1.000000     H
    H   1.0     0.530143     0.197793     0.679682  Biso 1.000000     H
    H   1.0     0.084165     0.132605     0.646218  Biso 1.000000     H
    H   1.0     0.584073     0.132523     0.646165  Biso 1.000000     H
    H   1.0     0.067231     0.133685     0.771540  Biso 1.000000     H
    H   1.0     0.567053     0.133461     0.771376  Biso 1.000000     H
    H   1.0     0.239007     0.717680     0.691216  Biso 1.000000     H
    H   1.0     0.739185     0.717507     0.691168  Biso 1.000000     H
    H   1.0     0.122290     0.334529     0.294894  Biso 1.000000     H
    H   1.0     0.622438     0.334330     0.294858  Biso 1.000000     H
    H   1.0     0.144164     0.233023     0.354431  Biso 1.000000     H
    H   1.0     0.644246     0.232800     0.354435  Biso 1.000000     H
    H   1.0     0.019471     0.150296     0.257921  Biso 1.000000     H
    H   1.0     0.519571     0.150126     0.257738  Biso 1.000000     H
    H   1.0     0.029324     0.302644     0.359909  Biso 1.000000     H
    H   1.0     0.529392     0.302480     0.359641  Biso 1.000000     H
    H   1.0     0.051225     0.199306     0.417661  Biso 1.000000     H
    H   1.0     0.551226     0.199135     0.417469  Biso 1.000000     H
    H   1.0     0.478645     0.750747     0.084589  Biso 1.000000     H
    H   1.0     0.978617     0.750806     0.084634  Biso 1.000000     H
    H   1.0     0.483664     0.372116     0.750484  Biso 1.000000     H
    H   1.0     0.983566     0.372066     0.750472  Biso 1.000000     H
    H   1.0     0.062680     0.490458     0.874056  Biso 1.000000     H
    H   1.0     0.562764     0.490561     0.874046  Biso 1.000000     H
    H   1.0     0.062099     0.479003     0.676534  Biso 1.000000     H
    H   1.0     0.562123     0.478991     0.676433  Biso 1.000000     H
    H   1.0    -0.007920     0.511655     0.642781  Biso 1.000000     H
    H   1.0     0.492108     0.511657     0.642736  Biso 1.000000     H
    H   1.0     0.070288     0.635076     0.767399  Biso 1.000000     H
    H   1.0     0.570331     0.635086     0.767296  Biso 1.000000     H
    H   1.0     0.358770     0.975893     0.691940  Biso 1.000000     H
    H   1.0     0.858673     0.975603     0.691982  Biso 1.000000     H
    H   1.0     0.272506     0.956866     0.293766  Biso 1.000000     H
    H   1.0     0.772334     0.956521     0.293802  Biso 1.000000     H
    H   1.0     0.278040     0.116109     0.352481  Biso 1.000000     H
    H   1.0     0.777800     0.115710     0.352489  Biso 1.000000     H
    H   1.0     0.351526     0.103319     0.246633  Biso 1.000000     H
    H   1.0     0.851314     0.103035     0.246672  Biso 1.000000     H
    H   1.0     0.395953     0.057114     0.348245  Biso 1.000000     H
    H   1.0     0.895791     0.056958     0.348353  Biso 1.000000     H
    H   1.0     0.400457     0.216401     0.405203  Biso 1.000000     H
    H   1.0     0.900214     0.216180     0.405231  Biso 1.000000     H
    H   1.0     0.186604     0.665508     0.913462  Biso 1.000000     H
    H   1.0     0.686456     0.665257     0.913542  Biso 1.000000     H
    H   1.0     0.355850     0.620864     0.247564  Biso 1.000000     H
    H   1.0     0.855793     0.620782     0.247703  Biso 1.000000     H
    H   1.0     0.374169     0.616168     0.123320  Biso 1.000000     H
    H   1.0     0.874042     0.615955     0.123364  Biso 1.000000     H
    H   1.0     0.469824     0.802232     0.320289  Biso 1.000000     H
    H   1.0     0.969726     0.802163     0.320194  Biso 1.000000     H
    H   1.0     0.415894     0.867502     0.353806  Biso 1.000000     H
    H   1.0     0.915801     0.867424     0.353748  Biso 1.000000     H
    H   1.0     0.432913     0.866561     0.228593  Biso 1.000000     H
    H   1.0     0.932732     0.866342     0.228424  Biso 1.000000     H
    H   1.0     0.260781     0.282519     0.308807  Biso 1.000000     H
    H   1.0     0.760961     0.282345     0.308759  Biso 1.000000     H
    H   1.0     0.377532     0.665698     0.705115  Biso 1.000000     H
    H   1.0     0.877679     0.665495     0.705080  Biso 1.000000     H
    H   1.0     0.355724     0.767229     0.645537  Biso 1.000000     H
    H   1.0     0.855801     0.766999     0.645544  Biso 1.000000     H
    H   1.0     0.480398     0.849900     0.742231  Biso 1.000000     H
    H   1.0     0.980495     0.849735     0.742052  Biso 1.000000     H
    H   1.0     0.470575     0.697544     0.640329  Biso 1.000000     H
    H   1.0     0.970643     0.697389     0.640062  Biso 1.000000     H
    H   1.0     0.448742     0.800889     0.582499  Biso 1.000000     H
    H   1.0     0.948739     0.800726     0.582313  Biso 1.000000     H
    H   1.0     0.021350     0.249217     0.915342  Biso 1.000000     H
    H   1.0     0.521322     0.249280     0.915384  Biso 1.000000     H
    H   1.0     0.016399     0.627961     0.249497  Biso 1.000000     H
    H   1.0     0.516303     0.627910     0.249490  Biso 1.000000     H
    H   1.0     0.437203     0.509465     0.125928  Biso 1.000000     H
    H   1.0     0.937286     0.509567     0.125914  Biso 1.000000     H
    H   1.0     0.437845     0.521036     0.323542  Biso 1.000000     H
    H   1.0     0.937868     0.521028     0.323438  Biso 1.000000     H
    H   1.0     0.507860     0.488370     0.357238  Biso 1.000000     H
    H   1.0     0.000000     0.488377     0.357192  Biso 1.000000     H
    H   1.0     0.429637     0.364941     0.232679  Biso 1.000000     H
    H   1.0     0.929680     0.364954     0.232576  Biso 1.000000     H
    H   1.0     0.141300     0.024422     0.307991  Biso 1.000000     H
    H   1.0     0.641191     0.024129     0.308033  Biso 1.000000     H
    H   1.0     0.227633     0.043499     0.706171  Biso 1.000000     H
    H   1.0     0.727467     0.043164     0.706209  Biso 1.000000     H
    H   1.0     0.222161     0.884307     0.647483  Biso 1.000000     H
    H   1.0     0.721932     0.883919     0.647492  Biso 1.000000     H
    H   1.0     0.148648     0.896993     0.753299  Biso 1.000000     H
    H   1.0     0.648450     0.896713     0.753349  Biso 1.000000     H
    H   1.0     0.104175     0.943076     0.651618  Biso 1.000000     H
    H   1.0     0.604022     0.942918     0.651740  Biso 1.000000     H
    H   1.0     0.099747     0.783850     0.594739  Biso 1.000000     H
    H   1.0     0.599516     0.783631     0.594779  Biso 1.000000     H
    C   1.0     0.198958     0.321722     0.868297  Biso 1.000000     C
    C   1.0     0.698828     0.321483     0.868366  Biso 1.000000     C
    C   1.0     0.280039     0.325548     0.001884  Biso 1.000000     C
    C   1.0     0.779897     0.325291     0.001958  Biso 1.000000     C
    C   1.0     0.135908     0.326025     0.805296  Biso 1.000000     C
    C   1.0     0.635799     0.325853     0.805353  Biso 1.000000     C
    C   1.0     0.075866     0.189645     0.720920  Biso 1.000000     C
    C   1.0     0.575746     0.189509     0.720850  Biso 1.000000     C
    C   1.0     0.168087     0.418782     0.488231  Biso 1.000000     C
    C   1.0     0.668183     0.418582     0.488193  Biso 1.000000     C
    C   1.0     0.219896     0.612752     0.637396  Biso 1.000000     C
    C   1.0     0.720057     0.612573     0.637349  Biso 1.000000     C
    C   1.0     0.122848     0.302635     0.365559  Biso 1.000000     C
    C   1.0     0.622945     0.302439     0.365513  Biso 1.000000     C
    C   1.0     0.051537     0.234737     0.349445  Biso 1.000000     C
    C   1.0     0.551604     0.234568     0.349271  Biso 1.000000     C
    C   1.0     0.486137     0.545997     0.866033  Biso 1.000000     C
    C   1.0     0.986057     0.545945     0.866078  Biso 1.000000     C
    C   1.0     0.470663     0.675739    -0.000040  Biso 1.000000     C
    C   1.0     0.970614     0.675743     0.000017  Biso 1.000000     C
    C   1.0     0.017955     0.477828     0.802849  Biso 1.000000     C
    C   1.0     0.518029     0.477884     0.802828  Biso 1.000000     C
    C   1.0     0.036786     0.528970     0.717577  Biso 1.000000     C
    C   1.0     0.536828     0.528981     0.717508  Biso 1.000000     C
    C   1.0     0.324815     0.068565     0.486600  Biso 1.000000     C
    C   1.0     0.824615     0.068234     0.486635  Biso 1.000000     C
    C   1.0     0.350079     0.026095     0.637422  Biso 1.000000     C
    C   1.0     0.849941     0.025787     0.637463  Biso 1.000000     C
    C   1.0     0.306251     0.059791     0.362193  Biso 1.000000     C
    C   1.0     0.806047     0.059460     0.362227  Biso 1.000000     C
    C   1.0     0.367195     0.112373     0.339378  Biso 1.000000     C
    C   1.0     0.866989     0.112130     0.339432  Biso 1.000000     C
    C   1.0     0.301139     0.678540     0.131606  Biso 1.000000     C
    C   1.0     0.801007     0.678302     0.131673  Biso 1.000000     C
    C   1.0     0.220070     0.674733     0.998014  Biso 1.000000     C
    C   1.0     0.719925     0.674476     0.998088  Biso 1.000000     C
    C   1.0     0.364167     0.674171     0.194620  Biso 1.000000     C
    C   1.0     0.864059     0.674001     0.194674  Biso 1.000000     C
    C   1.0     0.424221     0.810515     0.279121  Biso 1.000000     C
    C   1.0     0.924100     0.810384     0.279046  Biso 1.000000     C
    C   1.0     0.331785     0.581445     0.511780  Biso 1.000000     C
    C   1.0     0.831880     0.581243     0.511744  Biso 1.000000     C
    C   1.0     0.279910     0.387453     0.362625  Biso 1.000000     C
    C   1.0     0.780071     0.387273     0.362579  Biso 1.000000     C
    C   1.0     0.377023     0.697589     0.634459  Biso 1.000000     C
    C   1.0     0.877118     0.697390     0.634415  Biso 1.000000     C
    C   1.0     0.448365     0.765457     0.650698  Biso 1.000000     C
    C   1.0     0.948429     0.765293     0.650528  Biso 1.000000     C
    C   1.0     0.013909     0.454082     0.133895  Biso 1.000000     C
    C   1.0     0.513831     0.454029     0.133941  Biso 1.000000     C
    C   1.0     0.029353     0.324282     0.999958  Biso 1.000000     C
    C   1.0     0.529305     0.324287     0.000000  Biso 1.000000     C
    C   1.0     0.481939     0.522143     0.197146  Biso 1.000000     C
    C   1.0     0.982011     0.522200     0.197122  Biso 1.000000     C
    C   1.0     0.463141     0.471046     0.282466  Biso 1.000000     C
    C   1.0     0.963181     0.471060     0.282396  Biso 1.000000     C
    C   1.0     0.175352     0.931788     0.513338  Biso 1.000000     C
    C   1.0     0.675155     0.931463     0.513376  Biso 1.000000     C
    C   1.0     0.150029     0.974237     0.362510  Biso 1.000000     C
    C   1.0     0.649885     0.973929     0.362551  Biso 1.000000     C
    C   1.0     0.193917     0.940562     0.637746  Biso 1.000000     C
    C   1.0     0.693721     0.940238     0.637784  Biso 1.000000     C
    C   1.0     0.132974     0.887899     0.660539  Biso 1.000000     C
    C   1.0     0.632779     0.887659     0.660604  Biso 1.000000     C
    N   1.0     0.238305     0.299422     0.816110  Biso 1.000000     N
    N   1.0     0.738181     0.299192     0.816192  Biso 1.000000     N
    N   1.0     0.290924     0.301720     0.902852  Biso 1.000000     N
    N   1.0     0.790791     0.301476     0.902937  Biso 1.000000     N
    N   1.0     0.223404     0.338662     0.985224  Biso 1.000000     N
    N   1.0     0.723260     0.338398     0.985288  Biso 1.000000     N
    N   1.0     0.201742     0.411497     0.587993  Biso 1.000000     N
    N   1.0     0.701850     0.411295     0.587946  Biso 1.000000     N
    N   1.0     0.235206     0.537099     0.684570  Biso 1.000000     N
    N   1.0     0.735369     0.536913     0.684507  Biso 1.000000     N
    N   1.0     0.178361     0.544349     0.515491  Biso 1.000000     N
    N   1.0     0.678490     0.544167     0.515460  Biso 1.000000     N
    N   1.0     0.421498     0.517448     0.814108  Biso 1.000000     N
    N   1.0     0.921394     0.517270     0.814242  Biso 1.000000     N
    N   1.0     0.411492     0.601860     0.901049  Biso 1.000000     N
    N   1.0     0.911407     0.601721     0.901197  Biso 1.000000     N
    N   1.0     0.018875     0.645199     0.983037  Biso 1.000000     N
    N   1.0     0.518903     0.645129     0.983040  Biso 1.000000     N
    N   1.0     0.342900     0.177179     0.587282  Biso 1.000000     N
    N   1.0     0.842640     0.176803     0.587308  Biso 1.000000     N
    N   1.0     0.359376     0.149719     0.684956  Biso 1.000000     N
    N   1.0     0.859169     0.149362     0.684990  Biso 1.000000     N
    N   1.0     0.328449     0.970649     0.514299  Biso 1.000000     N
    N   1.0     0.828323     0.970357     0.514340  Biso 1.000000     N
    N   1.0     0.261785     0.700828     0.183779  Biso 1.000000     N
    N   1.0     0.761660     0.700599     0.183860  Biso 1.000000     N
    N   1.0     0.209176     0.698545     0.097034  Biso 1.000000     N
    N   1.0     0.709041     0.698302     0.097120  Biso 1.000000     N
    N   1.0     0.276708     0.661627     0.014685  Biso 1.000000     N
    N   1.0     0.776561     0.661363     0.014747  Biso 1.000000     N
    N   1.0     0.298117     0.588731     0.412027  Biso 1.000000     N
    N   1.0     0.798225     0.588528     0.411981  Biso 1.000000     N
    N   1.0     0.264597     0.463113     0.315467  Biso 1.000000     N
    N   1.0     0.764761     0.462925     0.315405  Biso 1.000000     N
    N   1.0     0.321478     0.455860     0.484514  Biso 1.000000     N
    N   1.0     0.821607     0.455677     0.484484  Biso 1.000000     N
    N   1.0     0.078573     0.482759     0.185730  Biso 1.000000     N
    N   1.0     0.578470     0.482579     0.185865  Biso 1.000000     N
    N   1.0     0.088560     0.398306     0.098777  Biso 1.000000     N
    N   1.0     0.588476     0.398168     0.098923  Biso 1.000000     N
    N   1.0     0.481065     0.354897     0.016934  Biso 1.000000     N
    N   1.0     0.981091     0.354826     0.016937  Biso 1.000000     N
    N   1.0     0.157328     0.823220     0.412666  Biso 1.000000     N
    N   1.0     0.657067     0.822847     0.412694  Biso 1.000000     N
    N   1.0     0.140801     0.850662     0.314985  Biso 1.000000     N
    N   1.0     0.640587     0.850305     0.315018  Biso 1.000000     N
    N   1.0     0.171645     0.029666     0.485632  Biso 1.000000     N
    N   1.0     0.671518     0.029378     0.485676  Biso 1.000000     N
   Ag   1.0     0.210381     0.241249     0.610840  Biso 1.000000    Ag
   Ag   1.0     0.710334     0.241001     0.610931  Biso 1.000000    Ag
   Ag   1.0     0.376584     0.283065     0.875814  Biso 1.000000    Ag
   Ag   1.0     0.876516     0.282903     0.875982  Biso 1.000000    Ag
   Ag   1.0     0.347052     0.371129     0.610444  Biso 1.000000    Ag
   Ag   1.0     0.846971     0.370899     0.610531  Biso 1.000000    Ag
   Ag   1.0     0.312621     0.593280     0.873416  Biso 1.000000    Ag
   Ag   1.0     0.812521     0.593105     0.873591  Biso 1.000000    Ag
   Ag   1.0     0.289632     0.759026     0.389041  Biso 1.000000    Ag
   Ag   1.0     0.789586     0.758774     0.389132  Biso 1.000000    Ag
   Ag   1.0     0.123450     0.717119     0.123990  Biso 1.000000    Ag
   Ag   1.0     0.623383     0.716961     0.124163  Biso 1.000000    Ag
   Ag   1.0     0.152996     0.629124     0.389443  Biso 1.000000    Ag
   Ag   1.0     0.652915     0.628897     0.389529  Biso 1.000000    Ag
   Ag   1.0     0.187446     0.406922     0.126382  Biso 1.000000    Ag
   Ag   1.0     0.687347     0.406746     0.126558  Biso 1.000000    Ag
