#======================================================================

# CRYSTAL DATA

#----------------------------------------------------------------------

data_VESTA_phase_1


_pd_phase_name                         MOF
_cell_length_a                         23.46000
_cell_length_b                         23.80500
_cell_length_c                         12.53300
_cell_angle_alpha                      106.76900
_cell_angle_beta                       106.19500
_cell_angle_gamma                      113.46200
_symmetry_space_group_name_H-M         "P 1"
_symmetry_Int_Tables_number            1

loop_
_symmetry_equiv_pos_as_xyz
   "x, y, z"

loop_
   _atom_site_label
   _atom_site_occupancy
   _atom_site_fract_x
   _atom_site_fract_y
   _atom_site_fract_z
   _atom_site_adp_type
   _atom_site_B_iso_or_equiv
   _atom_site_type_symbol
    H   1.0     0.323260     0.176145     0.089022  Biso 1.000000     H
    H   1.0     0.360856     0.701018     0.088995  Biso 1.000000     H
    H   1.0     0.828771     0.176192     0.089194  Biso 1.000000     H
    H   1.0     0.866369     0.701062     0.089159  Biso 1.000000     H
    H   1.0     0.144845     0.189026     0.750599  Biso 1.000000     H
    H   1.0     0.182453     0.713908     0.750572  Biso 1.000000     H
    H   1.0     0.650329     0.189004     0.750716  Biso 1.000000     H
    H   1.0     0.687937     0.713882     0.750684  Biso 1.000000     H
    H   1.0     0.124707     0.192301     0.877539  Biso 1.000000     H
    H   1.0     0.162306     0.717173     0.877500  Biso 1.000000     H
    H   1.0     0.630126     0.192182     0.877568  Biso 1.000000     H
    H   1.0     0.667729     0.717056     0.877530  Biso 1.000000     H
    H   1.0     0.021913     0.094920     0.678569  Biso 1.000000     H
    H   1.0     0.059518     0.619799     0.678515  Biso 1.000000     H
    H   1.0     0.527408     0.094815     0.678456  Biso 1.000000     H
    H   1.0     0.565012     0.619695     0.678411  Biso 1.000000     H
    H   1.0     0.072887     0.060071     0.645411  Biso 1.000000     H
    H   1.0     0.110495     0.584953     0.645360  Biso 1.000000     H
    H   1.0     0.578453     0.060043     0.645388  Biso 1.000000     H
    H   1.0     0.616055     0.584922     0.645340  Biso 1.000000     H
    H   1.0     0.054213     0.061260     0.773773  Biso 1.000000     H
    H   1.0     0.091811     0.586131     0.773710  Biso 1.000000     H
    H   1.0     0.559693     0.061138     0.773640  Biso 1.000000     H
    H   1.0     0.597291     0.586011     0.773586  Biso 1.000000     H
    H   1.0     0.262486     0.370365     0.701628  Biso 1.000000     H
    H   1.0     0.300092     0.895231     0.701575  Biso 1.000000     H
    H   1.0     0.767921     0.370131     0.701462  Biso 1.000000     H
    H   1.0     0.805527     0.894993     0.701419  Biso 1.000000     H
    H   1.0     0.130541     0.172240     0.295204  Biso 1.000000     H
    H   1.0     0.168174     0.697097     0.295152  Biso 1.000000     H
    H   1.0     0.636005     0.171967     0.295136  Biso 1.000000     H
    H   1.0     0.673638     0.696831     0.295087  Biso 1.000000     H
    H   1.0     0.143709     0.117258     0.355500  Biso 1.000000     H
    H   1.0     0.181308     0.642112     0.355476  Biso 1.000000     H
    H   1.0     0.649096     0.116977     0.355489  Biso 1.000000     H
    H   1.0     0.686705     0.641836     0.355453  Biso 1.000000     H
    H   1.0     0.016569     0.077955     0.256623  Biso 1.000000     H
    H   1.0     0.054179     0.602840     0.256547  Biso 1.000000     H
    H   1.0     0.521979     0.077719     0.256436  Biso 1.000000     H
    H   1.0     0.559596     0.602596     0.256355  Biso 1.000000     H
    H   1.0     0.034823     0.158361     0.361105  Biso 1.000000     H
    H   1.0     0.072446     0.683259     0.361002  Biso 1.000000     H
    H   1.0     0.540230     0.158143     0.360835  Biso 1.000000     H
    H   1.0     0.577850     0.683025     0.360739  Biso 1.000000     H
    H   1.0     0.047721     0.102226     0.419112  Biso 1.000000     H
    H   1.0     0.085308     0.627120     0.419038  Biso 1.000000     H
    H   1.0     0.553049     0.102004     0.418923  Biso 1.000000     H
    H   1.0     0.590644     0.626881     0.418841  Biso 1.000000     H
    H   1.0     0.517216     0.392904     0.088653  Biso 1.000000     H
    H   1.0     0.554813     0.917778     0.088624  Biso 1.000000     H
    H   1.0     0.000000     0.392921     0.088564  Biso 1.000000     H
    H   1.0     0.000000     0.917784     0.088535  Biso 1.000000     H
    H   1.0     0.488833     0.186742     0.748939  Biso 1.000000     H
    H   1.0     0.526453     0.711632     0.748914  Biso 1.000000     H
    H   1.0     0.994235     0.186615     0.748909  Biso 1.000000     H
    H   1.0     0.000000     0.711496     0.748861  Biso 1.000000     H
    H   1.0     0.066833     0.246477     0.875825  Biso 1.000000     H
    H   1.0     0.104439     0.771356     0.875783  Biso 1.000000     H
    H   1.0     0.572502     0.246617     0.875870  Biso 1.000000     H
    H   1.0     0.610119     0.771511     0.875851  Biso 1.000000     H
    H   1.0     0.070307     0.244515     0.677077  Biso 1.000000     H
    H   1.0     0.107917     0.769412     0.677045  Biso 1.000000     H
    H   1.0     0.575969     0.244671     0.677123  Biso 1.000000     H
    H   1.0     0.613590     0.769576     0.677110  Biso 1.000000     H
    H   1.0     0.003013     0.263131     0.644102  Biso 1.000000     H
    H   1.0     0.040621     0.788026     0.644080  Biso 1.000000     H
    H   1.0     0.508671     0.263281     0.644165  Biso 1.000000     H
    H   1.0     0.546285     0.788177     0.644151  Biso 1.000000     H
    H   1.0     0.085911     0.325877     0.772508  Biso 1.000000     H
    H   1.0     0.123517     0.850769     0.772492  Biso 1.000000     H
    H   1.0     0.591568     0.326025     0.772574  Biso 1.000000     H
    H   1.0     0.629178     0.850924     0.772564  Biso 1.000000     H
    H   1.0     0.384244     0.506749     0.701713  Biso 1.000000     H
    H   1.0     0.421881     0.000000     0.701694  Biso 1.000000     H
    H   1.0     0.889600     0.506571     0.701922  Biso 1.000000     H
    H   1.0     0.927242     0.000000     0.701922  Biso 1.000000     H
    H   1.0     0.307802     0.499298     0.294171  Biso 1.000000     H
    H   1.0     0.345415     0.000000     0.294169  Biso 1.000000     H
    H   1.0     0.813234     0.499077     0.294329  Biso 1.000000     H
    H   1.0     0.850852     0.000000     0.294343  Biso 1.000000     H
    H   1.0     0.286514     0.059313     0.353875  Biso 1.000000     H
    H   1.0     0.324171     0.584194     0.353867  Biso 1.000000     H
    H   1.0     0.791902     0.059079     0.354021  Biso 1.000000     H
    H   1.0     0.829543     0.583950     0.353993  Biso 1.000000     H
    H   1.0     0.362151     0.048967     0.250145  Biso 1.000000     H
    H   1.0     0.399807     0.573817     0.250154  Biso 1.000000     H
    H   1.0     0.867551     0.048791     0.250310  Biso 1.000000     H
    H   1.0     0.905197     0.573643     0.250303  Biso 1.000000     H
    H   1.0     0.398489     0.022008     0.354598  Biso 1.000000     H
    H   1.0     0.436125     0.546853     0.354619  Biso 1.000000     H
    H   1.0     0.903932     0.021856     0.354764  Biso 1.000000     H
    H   1.0     0.941565     0.546710     0.354774  Biso 1.000000     H
    H   1.0     0.413884     0.106884     0.412017  Biso 1.000000     H
    H   1.0     0.451539     0.631737     0.412025  Biso 1.000000     H
    H   1.0     0.919281     0.106716     0.412178  Biso 1.000000     H
    H   1.0     0.956922     0.631573     0.412169  Biso 1.000000     H
    H   1.0     0.203503     0.338553     0.918675  Biso 1.000000     H
    H   1.0     0.241100     0.863421     0.918639  Biso 1.000000     H
    H   1.0     0.709018     0.338598     0.918847  Biso 1.000000     H
    H   1.0     0.746615     0.863474     0.918821  Biso 1.000000     H
    H   1.0     0.381938     0.325735     0.257150  Biso 1.000000     H
    H   1.0     0.419546     0.850614     0.257121  Biso 1.000000     H
    H   1.0     0.887423     0.325706     0.257263  Biso 1.000000     H
    H   1.0     0.925029     0.850585     0.257231  Biso 1.000000     H
    H   1.0     0.402149     0.322566     0.130309  Biso 1.000000     H
    H   1.0     0.439751     0.847439     0.130272  Biso 1.000000     H
    H   1.0     0.907569     0.322442     0.130334  Biso 1.000000     H
    H   1.0     0.945167     0.847314     0.130293  Biso 1.000000     H
    H   1.0     0.504862     0.419927     0.329435  Biso 1.000000     H
    H   1.0     0.542466     0.944807     0.329389  Biso 1.000000     H
    H   1.0     0.000000     0.419816     0.329318  Biso 1.000000     H
    H   1.0     0.000000     0.944692     0.329267  Biso 1.000000     H
    H   1.0     0.453816     0.454697     0.362501  Biso 1.000000     H
    H   1.0     0.491418     0.979576     0.362452  Biso 1.000000     H
    H   1.0     0.959381     0.454661     0.362476  Biso 1.000000     H
    H   1.0     0.996988     0.979540     0.362429  Biso 1.000000     H
    H   1.0     0.472584     0.453611     0.234260  Biso 1.000000     H
    H   1.0     0.510181     0.978484     0.234204  Biso 1.000000     H
    H   1.0     0.978063     0.453484     0.234126  Biso 1.000000     H
    H   1.0     0.000000     0.978355     0.234070  Biso 1.000000     H
    H   1.0     0.264352     0.144624     0.306405  Biso 1.000000     H
    H   1.0     0.301959     0.669487     0.306361  Biso 1.000000     H
    H   1.0     0.769774     0.144381     0.306260  Biso 1.000000     H
    H   1.0     0.807381     0.669247     0.306205  Biso 1.000000     H
    H   1.0     0.396227     0.342782     0.712743  Biso 1.000000     H
    H   1.0     0.433864     0.867644     0.712694  Biso 1.000000     H
    H   1.0     0.901701     0.342516     0.712681  Biso 1.000000     H
    H   1.0     0.939335     0.867372     0.712629  Biso 1.000000     H
    H   1.0     0.383164     0.397778     0.652377  Biso 1.000000     H
    H   1.0     0.420766     0.922634     0.652346  Biso 1.000000     H
    H   1.0     0.888570     0.397503     0.652360  Biso 1.000000     H
    H   1.0     0.926169     0.922355     0.652335  Biso 1.000000     H
    H   1.0     0.510273     0.437018     0.751490  Biso 1.000000     H
    H   1.0     0.547886     0.961902     0.751403  Biso 1.000000     H
    H   1.0     0.000000     0.436769     0.751284  Biso 1.000000     H
    H   1.0     0.000000     0.961655     0.751207  Biso 1.000000     H
    H   1.0     0.492020     0.356589     0.647107  Biso 1.000000     H
    H   1.0     0.529643     0.881484     0.647000  Biso 1.000000     H
    H   1.0     0.997427     0.356349     0.646826  Biso 1.000000     H
    H   1.0     0.000000     0.881248     0.646722  Biso 1.000000     H
    H   1.0     0.479231     0.412734     0.589005  Biso 1.000000     H
    H   1.0     0.516817     0.937621     0.588917  Biso 1.000000     H
    H   1.0     0.984567     0.412490     0.588793  Biso 1.000000     H
    H   1.0     0.000000     0.937384     0.588717  Biso 1.000000     H
    H   1.0     0.009535     0.121830     0.919305  Biso 1.000000     H
    H   1.0     0.047132     0.646693     0.919277  Biso 1.000000     H
    H   1.0     0.515063     0.121834     0.919217  Biso 1.000000     H
    H   1.0     0.552661     0.646712     0.919185  Biso 1.000000     H
    H   1.0     0.038027     0.328115     0.258986  Biso 1.000000     H
    H   1.0     0.075634     0.852996     0.258937  Biso 1.000000     H
    H   1.0     0.543420     0.327986     0.258910  Biso 1.000000     H
    H   1.0     0.581038     0.852872     0.258895  Biso 1.000000     H
    H   1.0     0.459754     0.268105     0.131973  Biso 1.000000     H
    H   1.0     0.497371     0.792997     0.131959  Biso 1.000000     H
    H   1.0     0.965432     0.268256     0.132060  Biso 1.000000     H
    H   1.0     0.000000     0.793133     0.132019  Biso 1.000000     H
    H   1.0     0.456284     0.270047     0.330717  Biso 1.000000     H
    H   1.0     0.493899     0.794939     0.330702  Biso 1.000000     H
    H   1.0     0.961949     0.270194     0.330792  Biso 1.000000     H
    H   1.0     0.999561     0.795092     0.330763  Biso 1.000000     H
    H   1.0     0.523589     0.251448     0.363684  Biso 1.000000     H
    H   1.0     0.561197     0.776330     0.363662  Biso 1.000000     H
    H   1.0     0.000000     0.251580     0.363759  Biso 1.000000     H
    H   1.0     0.000000     0.776476     0.363739  Biso 1.000000     H
    H   1.0     0.440696     0.188698     0.235272  Biso 1.000000     H
    H   1.0     0.478302     0.713587     0.235250  Biso 1.000000     H
    H   1.0     0.946349     0.188839     0.235342  Biso 1.000000     H
    H   1.0     0.983957     0.713731     0.235331  Biso 1.000000     H
    H   1.0     0.142623     0.008169     0.305910  Biso 1.000000     H
    H   1.0     0.180268     0.533040     0.305911  Biso 1.000000     H
    H   1.0     0.647990     0.008004     0.306134  Biso 1.000000     H
    H   1.0     0.685628     0.532867     0.306114  Biso 1.000000     H
    H   1.0     0.219021     0.015657     0.713491  Biso 1.000000     H
    H   1.0     0.256644     0.540539     0.713507  Biso 1.000000     H
    H   1.0     0.724450     0.015443     0.713661  Biso 1.000000     H
    H   1.0     0.762065     0.540319     0.713659  Biso 1.000000     H
    H   1.0     0.240334     0.455666     0.653843  Biso 1.000000     H
    H   1.0     0.277976     0.980538     0.653816  Biso 1.000000     H
    H   1.0     0.745696     0.455422     0.653964  Biso 1.000000     H
    H   1.0     0.783351     0.980303     0.653956  Biso 1.000000     H
    H   1.0     0.164685     0.465976     0.757543  Biso 1.000000     H
    H   1.0     0.202328     0.990823     0.757532  Biso 1.000000     H
    H   1.0     0.670057     0.465799     0.757670  Biso 1.000000     H
    H   1.0     0.707710     0.990648     0.757677  Biso 1.000000     H
    H   1.0     0.128314     0.492908     0.653074  Biso 1.000000     H
    H   1.0     0.165941     0.000000     0.653077  Biso 1.000000     H
    H   1.0     0.633741     0.492763     0.653202  Biso 1.000000     H
    H   1.0     0.671374     0.000000     0.653222  Biso 1.000000     H
    H   1.0     0.112956     0.408044     0.595678  Biso 1.000000     H
    H   1.0     0.150597     0.932895     0.595666  Biso 1.000000     H
    H   1.0     0.618328     0.407879     0.595798  Biso 1.000000     H
    H   1.0     0.655981     0.932731     0.595804  Biso 1.000000     H
    C   1.0     0.194926     0.159166     0.871601  Biso 1.000000     C
    C   1.0     0.232528     0.684042     0.871569  Biso 1.000000     C
    C   1.0     0.700411     0.159134     0.871689  Biso 1.000000     C
    C   1.0     0.738012     0.684005     0.871651  Biso 1.000000     C
    C   1.0     0.274271     0.161229     0.000000  Biso 1.000000     C
    C   1.0     0.311870     0.686105     0.000000  Biso 1.000000     C
    C   1.0     0.779780     0.161256     0.000000  Biso 1.000000     C
    C   1.0     0.817379     0.686125     0.000000  Biso 1.000000     C
    C   1.0     0.132830     0.161514     0.805802  Biso 1.000000     C
    C   1.0     0.170433     0.686390     0.805765  Biso 1.000000     C
    C   1.0     0.638299     0.161449     0.805848  Biso 1.000000     C
    C   1.0     0.675902     0.686324     0.805810  Biso 1.000000     C
    C   1.0     0.066598     0.090319     0.721104  Biso 1.000000     C
    C   1.0     0.104202     0.615196     0.721052  Biso 1.000000     C
    C   1.0     0.572102     0.090238     0.721044  Biso 1.000000     C
    C   1.0     0.609704     0.615115     0.720997  Biso 1.000000     C
    C   1.0     0.177506     0.214878     0.492158  Biso 1.000000     C
    C   1.0     0.215118     0.739743     0.492109  Biso 1.000000     C
    C   1.0     0.682908     0.214619     0.492086  Biso 1.000000     C
    C   1.0     0.720521     0.739483     0.492038  Biso 1.000000     C
    C   1.0     0.238277     0.315533     0.645696  Biso 1.000000     C
    C   1.0     0.275885     0.840399     0.645645  Biso 1.000000     C
    C   1.0     0.743702     0.315293     0.645570  Biso 1.000000     C
    C   1.0     0.781310     0.840156     0.645525  Biso 1.000000     C
    C   1.0     0.127270     0.155043     0.366953  Biso 1.000000     C
    C   1.0     0.164884     0.679907     0.366905  Biso 1.000000     C
    C   1.0     0.632680     0.154778     0.366881  Biso 1.000000     C
    C   1.0     0.670297     0.679643     0.366830  Biso 1.000000     C
    C   1.0     0.052203     0.121424     0.350115  Biso 1.000000     C
    C   1.0     0.089811     0.646310     0.350038  Biso 1.000000     C
    C   1.0     0.557591     0.121191     0.349931  Biso 1.000000     C
    C   1.0     0.595203     0.646067     0.349852  Biso 1.000000     C
    C   1.0     0.499653     0.277213     0.870433  Biso 1.000000     C
    C   1.0     0.537263     0.802097     0.870411  Biso 1.000000     C
    C   1.0     0.000000     0.277117     0.870393  Biso 1.000000     C
    C   1.0     0.000000     0.801991     0.870359  Biso 1.000000     C
    C   1.0     0.489687     0.344253     0.000000  Biso 1.000000     C
    C   1.0     0.527288     0.869129     0.000000  Biso 1.000000     C
    C   1.0     0.995185     0.344233     0.000000  Biso 1.000000     C
    C   1.0     0.000000     0.869099     0.000000  Biso 1.000000     C
    C   1.0     0.022970     0.241665     0.804273  Biso 1.000000     C
    C   1.0     0.060577     0.766547     0.804235  Biso 1.000000     C
    C   1.0     0.528634     0.241797     0.804318  Biso 1.000000     C
    C   1.0     0.566250     0.766688     0.804298  Biso 1.000000     C
    C   1.0     0.047030     0.270531     0.719728  Biso 1.000000     C
    C   1.0     0.084638     0.795423     0.719701  Biso 1.000000     C
    C   1.0     0.552689     0.270678     0.719785  Biso 1.000000     C
    C   1.0     0.590304     0.795576     0.719771  Biso 1.000000     C
    C   1.0     0.323841     0.031363     0.490884  Biso 1.000000     C
    C   1.0     0.361474     0.556241     0.490886  Biso 1.000000     C
    C   1.0     0.829258     0.031163     0.491060  Biso 1.000000     C
    C   1.0     0.866884     0.556034     0.491045  Biso 1.000000     C
    C   1.0     0.342103     0.008397     0.645372  Biso 1.000000     C
    C   1.0     0.379723     0.533281     0.645384  Biso 1.000000     C
    C   1.0     0.847484     0.008219     0.645580  Biso 1.000000     C
    C   1.0     0.885098     0.533096     0.645574  Biso 1.000000     C
    C   1.0     0.309391     0.027735     0.364688  Biso 1.000000     C
    C   1.0     0.347035     0.552607     0.364689  Biso 1.000000     C
    C   1.0     0.814808     0.027526     0.364858  Biso 1.000000     C
    C   1.0     0.852442     0.552392     0.364841  Biso 1.000000     C
    C   1.0     0.374896     0.052955     0.344337  Biso 1.000000     C
    C   1.0     0.412544     0.577809     0.344348  Biso 1.000000     C
    C   1.0     0.880310     0.052781     0.344506  Biso 1.000000     C
    C   1.0     0.917949     0.577638     0.344501  Biso 1.000000     C
    C   1.0     0.331863     0.355613     0.136185  Biso 1.000000     C
    C   1.0     0.369463     0.880485     0.136148  Biso 1.000000     C
    C   1.0     0.837346     0.355572     0.136268  Biso 1.000000     C
    C   1.0     0.874948     0.880448     0.136235  Biso 1.000000     C
    C   1.0     0.252494     0.353491    -0.002250  Biso 1.000000     C
    C   1.0     0.290092     0.878359    -0.002286  Biso 1.000000     C
    C   1.0     0.758004     0.353511    -0.002102  Biso 1.000000     C
    C   1.0     0.795603     0.878387    -0.002130  Biso 1.000000     C
    C   1.0     0.393973     0.353296     0.202028  Biso 1.000000     C
    C   1.0     0.431576     0.878171     0.201991  Biso 1.000000     C
    C   1.0     0.899443     0.353224     0.202070  Biso 1.000000     C
    C   1.0     0.937045     0.878099     0.202032  Biso 1.000000     C
    C   1.0     0.460169     0.424506     0.286846  Biso 1.000000     C
    C   1.0     0.497771     0.949383     0.286798  Biso 1.000000     C
    C   1.0     0.965673     0.424419     0.286783  Biso 1.000000     C
    C   1.0     0.000000     0.949294     0.286734  Biso 1.000000     C
    C   1.0     0.349351     0.300132     0.515793  Biso 1.000000     C
    C   1.0     0.386963     0.824996     0.515744  Biso 1.000000     C
    C   1.0     0.854756     0.299870     0.515725  Biso 1.000000     C
    C   1.0     0.892368     0.824735     0.515675  Biso 1.000000     C
    C   1.0     0.288567     0.199461     0.362301  Biso 1.000000     C
    C   1.0     0.326175     0.724324     0.362255  Biso 1.000000     C
    C   1.0     0.793985     0.199214     0.362190  Biso 1.000000     C
    C   1.0     0.831594     0.724080     0.362137  Biso 1.000000     C
    C   1.0     0.399572     0.359971     0.641003  Biso 1.000000     C
    C   1.0     0.437188     0.884836     0.640952  Biso 1.000000     C
    C   1.0     0.904992     0.359706     0.640929  Biso 1.000000     C
    C   1.0     0.942606     0.884570     0.640880  Biso 1.000000     C
    C   1.0     0.474668     0.393548     0.657990  Biso 1.000000     C
    C   1.0     0.512277     0.918431     0.657906  Biso 1.000000     C
    C   1.0     0.980065     0.393299     0.657793  Biso 1.000000     C
    C   1.0     0.000000     0.918186     0.657715  Biso 1.000000     C
    C   1.0     0.027169     0.237620     0.137485  Biso 1.000000     C
    C   1.0     0.064773     0.762495     0.137452  Biso 1.000000     C
    C   1.0     0.532612     0.237520     0.137422  Biso 1.000000     C
    C   1.0     0.570220     0.762402     0.137401  Biso 1.000000     C
    C   1.0     0.037087     0.170514    -0.001418  Biso 1.000000     C
    C   1.0     0.074686     0.695381    -0.001447  Biso 1.000000     C
    C   1.0     0.542588     0.170484    -0.001490  Biso 1.000000     C
    C   1.0     0.580189     0.695362    -0.001519  Biso 1.000000     C
    C   1.0     0.503624     0.272930     0.203530  Biso 1.000000     C
    C   1.0     0.541238     0.797817     0.203513  Biso 1.000000     C
    C   1.0     0.000000     0.273064     0.203608  Biso 1.000000     C
    C   1.0     0.000000     0.797945     0.203571  Biso 1.000000     C
    C   1.0     0.479570     0.244046     0.288060  Biso 1.000000     C
    C   1.0     0.517180     0.768933     0.288042  Biso 1.000000     C
    C   1.0     0.985229     0.244185     0.288137  Biso 1.000000     C
    C   1.0     0.000000     0.769077     0.288113  Biso 1.000000     C
    C   1.0     0.202989     0.483579     0.516791  Biso 1.000000     C
    C   1.0     0.240612     0.000000     0.516775  Biso 1.000000     C
    C   1.0     0.708396     0.483377     0.516944  Biso 1.000000     C
    C   1.0     0.746028     0.000000     0.516945  Biso 1.000000     C
    C   1.0     0.184772     0.506516     0.362260  Biso 1.000000     C
    C   1.0     0.222383     0.000000     0.362253  Biso 1.000000     C
    C   1.0     0.690149     0.506336     0.362445  Biso 1.000000     C
    C   1.0     0.727768     0.000000     0.362457  Biso 1.000000     C
    C   1.0     0.217435     0.487223     0.642997  Biso 1.000000     C
    C   1.0     0.255067     0.000000     0.642980  Biso 1.000000     C
    C   1.0     0.722833     0.487010     0.643140  Biso 1.000000     C
    C   1.0     0.760475     0.000000     0.643140  Biso 1.000000     C
    C   1.0     0.151931     0.461980     0.663344  Biso 1.000000     C
    C   1.0     0.189566     0.986831     0.663336  Biso 1.000000     C
    C   1.0     0.657322     0.461807     0.663476  Biso 1.000000     C
    C   1.0     0.694968     0.986660     0.663485  Biso 1.000000     C
    N   1.0     0.234832     0.148043     0.820086  Biso 1.000000     N
    N   1.0     0.272439     0.672926     0.820063  Biso 1.000000     N
    N   1.0     0.740358     0.148064     0.820234  Biso 1.000000     N
    N   1.0     0.777958     0.672933     0.820198  Biso 1.000000     N
    N   1.0     0.286349     0.149320     0.909955  Biso 1.000000     N
    N   1.0     0.323954     0.674202     0.909935  Biso 1.000000     N
    N   1.0     0.791893     0.149382     0.910146  Biso 1.000000     N
    N   1.0     0.829492     0.674250     0.910111  Biso 1.000000     N
    N   1.0     0.217887     0.167660     0.991009  Biso 1.000000     N
    N   1.0     0.255484     0.692532     0.990974  Biso 1.000000     N
    N   1.0     0.723360     0.167628     0.991092  Biso 1.000000     N
    N   1.0     0.760959     0.692500     0.991055  Biso 1.000000     N
    N   1.0     0.210222     0.209737     0.592216  Biso 1.000000     N
    N   1.0     0.247832     0.734604     0.592172  Biso 1.000000     N
    N   1.0     0.715616     0.209495     0.592179  Biso 1.000000     N
    N   1.0     0.753227     0.734360     0.592132  Biso 1.000000     N
    N   1.0     0.249515     0.274892     0.691623  Biso 1.000000     N
    N   1.0     0.287123     0.799759     0.691576  Biso 1.000000     N
    N   1.0     0.754931     0.274666     0.691549  Biso 1.000000     N
    N   1.0     0.792539     0.799529     0.691504  Biso 1.000000     N
    N   1.0     0.193939     0.280971     0.521993  Biso 1.000000     N
    N   1.0     0.231549     0.805835     0.521941  Biso 1.000000     N
    N   1.0     0.699359     0.280712     0.521869  Biso 1.000000     N
    N   1.0     0.736970     0.805576     0.521822  Biso 1.000000     N
    N   1.0     0.434143     0.262985     0.819018  Biso 1.000000     N
    N   1.0     0.471751     0.787863     0.818990  Biso 1.000000     N
    N   1.0     0.939589     0.262897     0.819002  Biso 1.000000     N
    N   1.0     0.977191     0.787769     0.818968  Biso 1.000000     N
    N   1.0     0.427683     0.306582     0.909230  Biso 1.000000     N
    N   1.0     0.465285     0.831455     0.909200  Biso 1.000000     N
    N   1.0     0.933167     0.306544     0.909197  Biso 1.000000     N
    N   1.0     0.970766     0.831411     0.909165  Biso 1.000000     N
    N   1.0     0.030813     0.328056     0.990078  Biso 1.000000     N
    N   1.0     0.068414     0.852927     0.990047  Biso 1.000000     N
    N   1.0     0.536421     0.328116     0.990149  Biso 1.000000     N
    N   1.0     0.574026     0.852999     0.990127  Biso 1.000000     N
    N   1.0     0.342945     0.087225     0.591571  Biso 1.000000     N
    N   1.0     0.380571     0.612104     0.591562  Biso 1.000000     N
    N   1.0     0.848390     0.087045     0.591731  Biso 1.000000     N
    N   1.0     0.886006     0.611917     0.591706  Biso 1.000000     N
    N   1.0     0.354845     0.072379     0.691602  Biso 1.000000     N
    N   1.0     0.392463     0.597262     0.691599  Biso 1.000000     N
    N   1.0     0.860269     0.072219     0.691787  Biso 1.000000     N
    N   1.0     0.897878     0.597095     0.691767  Biso 1.000000     N
    N   1.0     0.360155     0.505169     0.520910  Biso 1.000000     N
    N   1.0     0.397776     0.000000     0.520895  Biso 1.000000     N
    N   1.0     0.865525     0.504962     0.521099  Biso 1.000000     N
    N   1.0     0.903153     0.000000     0.521102  Biso 1.000000     N
    N   1.0     0.291918     0.366688     0.187640  Biso 1.000000     N
    N   1.0     0.329518     0.891558     0.187604  Biso 1.000000     N
    N   1.0     0.797432     0.366682     0.187773  Biso 1.000000     N
    N   1.0     0.835039     0.891565     0.187749  Biso 1.000000     N
    N   1.0     0.240382     0.365368     0.097726  Biso 1.000000     N
    N   1.0     0.277982     0.890237     0.097692  Biso 1.000000     N
    N   1.0     0.745918     0.365408     0.097903  Biso 1.000000     N
    N   1.0     0.783523     0.890289     0.097882  Biso 1.000000     N
    N   1.0     0.308913     0.347117     0.016781  Biso 1.000000     N
    N   1.0     0.346512     0.871987     0.016743  Biso 1.000000     N
    N   1.0     0.814392     0.347086     0.016865  Biso 1.000000     N
    N   1.0     0.851989     0.871959     0.016831  Biso 1.000000     N
    N   1.0     0.316646     0.305257     0.415699  Biso 1.000000     N
    N   1.0     0.354255     0.830120     0.415652  Biso 1.000000     N
    N   1.0     0.822043     0.305011     0.415663  Biso 1.000000     N
    N   1.0     0.859653     0.829877     0.415617  Biso 1.000000     N
    N   1.0     0.277339     0.240088     0.316323  Biso 1.000000     N
    N   1.0     0.314945     0.764951     0.316278  Biso 1.000000     N
    N   1.0     0.782750     0.239855     0.316259  Biso 1.000000     N
    N   1.0     0.820358     0.764722     0.316211  Biso 1.000000     N
    N   1.0     0.332903     0.234040     0.486006  Biso 1.000000     N
    N   1.0     0.370515     0.758904     0.485959  Biso 1.000000     N
    N   1.0     0.838321     0.233777     0.485893  Biso 1.000000     N
    N   1.0     0.875932     0.758641     0.485839  Biso 1.000000     N
    N   1.0     0.092678     0.251841     0.188876  Biso 1.000000     N
    N   1.0     0.130281     0.776714     0.188842  Biso 1.000000     N
    N   1.0     0.598124     0.251754     0.188846  Biso 1.000000     N
    N   1.0     0.635731     0.776630     0.188819  Biso 1.000000     N
    N   1.0     0.099103     0.208201     0.098677  Biso 1.000000     N
    N   1.0     0.136703     0.733069     0.098646  Biso 1.000000     N
    N   1.0     0.604590     0.208159     0.098640  Biso 1.000000     N
    N   1.0     0.642192     0.733033     0.098609  Biso 1.000000     N
    N   1.0     0.495850     0.186616     0.017708  Biso 1.000000     N
    N   1.0     0.533455     0.711499     0.017685  Biso 1.000000     N
    N   1.0     0.000000     0.186686     0.017796  Biso 1.000000     N
    N   1.0     0.000000     0.711557     0.017767  Biso 1.000000     N
    N   1.0     0.183861     0.427694     0.416129  Biso 1.000000     N
    N   1.0     0.221480     0.952567     0.416105  Biso 1.000000     N
    N   1.0     0.689302     0.427514     0.416270  Biso 1.000000     N
    N   1.0     0.726926     0.952392     0.416261  Biso 1.000000     N
    N   1.0     0.171987     0.442516     0.316066  Biso 1.000000     N
    N   1.0     0.209599     0.967392     0.316046  Biso 1.000000     N
    N   1.0     0.677410     0.442354     0.316232  Biso 1.000000     N
    N   1.0     0.715027     0.967237     0.316229  Biso 1.000000     N
    N   1.0     0.166718     0.009776     0.486732  Biso 1.000000     N
    N   1.0     0.204349     0.534652     0.486737  Biso 1.000000     N
    N   1.0     0.672092     0.009577     0.486933  Biso 1.000000     N
    N   1.0     0.709714     0.534447     0.486917  Biso 1.000000     N
   Ag   1.0     0.209797     0.119241     0.611310  Biso 1.000000    Ag
   Ag   1.0     0.247412     0.644115     0.611287  Biso 1.000000    Ag
   Ag   1.0     0.715219     0.119047     0.611413  Biso 1.000000    Ag
   Ag   1.0     0.752828     0.643914     0.611377  Biso 1.000000    Ag
   Ag   1.0     0.372420     0.140565     0.884151  Biso 1.000000    Ag
   Ag   1.0     0.410025     0.665450     0.884134  Biso 1.000000    Ag
   Ag   1.0     0.877957     0.140569     0.884360  Biso 1.000000    Ag
   Ag   1.0     0.915559     0.665443     0.884332  Biso 1.000000    Ag
   Ag   1.0     0.353782     0.187592     0.610993  Biso 1.000000    Ag
   Ag   1.0     0.391396     0.712463     0.610958  Biso 1.000000    Ag
   Ag   1.0     0.859198     0.187378     0.610989  Biso 1.000000    Ag
   Ag   1.0     0.896807     0.712245     0.610944  Biso 1.000000    Ag
   Ag   1.0     0.328729     0.302523     0.882886  Biso 1.000000    Ag
   Ag   1.0     0.366329     0.827393     0.882849  Biso 1.000000    Ag
   Ag   1.0     0.834178     0.302432     0.882932  Biso 1.000000    Ag
   Ag   1.0     0.871776     0.827299     0.882901  Biso 1.000000    Ag
   Ag   1.0     0.317045     0.395703     0.396458  Biso 1.000000    Ag
   Ag   1.0     0.354652     0.920569     0.396422  Biso 1.000000    Ag
   Ag   1.0     0.822464     0.395500     0.396551  Biso 1.000000    Ag
   Ag   1.0     0.860077     0.920373     0.396526  Biso 1.000000    Ag
   Ag   1.0     0.154313     0.374170     0.123504  Biso 1.000000    Ag
   Ag   1.0     0.191915     0.899044     0.123476  Biso 1.000000    Ag
   Ag   1.0     0.659848     0.374164     0.123701  Biso 1.000000    Ag
   Ag   1.0     0.697454     0.899049     0.123685  Biso 1.000000    Ag
   Ag   1.0     0.173065     0.327369     0.396894  Biso 1.000000    Ag
   Ag   1.0     0.210674     0.852236     0.396849  Biso 1.000000    Ag
   Ag   1.0     0.678478     0.327155     0.396875  Biso 1.000000    Ag
   Ag   1.0     0.716091     0.852026     0.396841  Biso 1.000000    Ag
   Ag   1.0     0.198094     0.212316     0.124929  Biso 1.000000    Ag
   Ag   1.0     0.235692     0.737183     0.124898  Biso 1.000000    Ag
   Ag   1.0     0.703546     0.212223     0.124989  Biso 1.000000    Ag
   Ag   1.0     0.741145     0.737093     0.124950  Biso 1.000000    Ag
