#======================================================================

# CRYSTAL DATA

#----------------------------------------------------------------------

data_VESTA_phase_1


_pd_phase_name                         MOF
_cell_length_a                         20.93000
_cell_length_b                         13.44500
_cell_length_c                         15.99100
_cell_angle_alpha                      96.79900
_cell_angle_beta                       107.02000
_cell_angle_gamma                      103.18400
_symmetry_space_group_name_H-M         "P 1"
_symmetry_Int_Tables_number            1

loop_
_symmetry_equiv_pos_as_xyz
   "x, y, z"

loop_
   _atom_site_label
   _atom_site_occupancy
   _atom_site_fract_x
   _atom_site_fract_y
   _atom_site_fract_z
   _atom_site_adp_type
   _atom_site_B_iso_or_equiv
   _atom_site_type_symbol
    H   1.0     0.420921     0.430573     0.686002  Biso 1.000000     H
    H   1.0     0.920909     0.430571     0.686007  Biso 1.000000     H
    H   1.0     0.333646     0.349920     0.652155  Biso 1.000000     H
    H   1.0     0.833636     0.349914     0.652159  Biso 1.000000     H
    H   1.0     0.033948     0.302681     0.864669  Biso 1.000000     H
    H   1.0     0.533940     0.302671     0.864665  Biso 1.000000     H
    H   1.0     0.111915     0.301132     0.947538  Biso 1.000000     H
    H   1.0     0.611910     0.301126     0.947531  Biso 1.000000     H
    H   1.0     0.307395     0.269703     0.521604  Biso 1.000000     H
    H   1.0     0.807388     0.269705     0.521605  Biso 1.000000     H
    H   1.0     0.375518     0.269096     0.475988  Biso 1.000000     H
    H   1.0     0.875512     0.269093     0.475991  Biso 1.000000     H
    H   1.0     0.026120     0.038314     0.406465  Biso 1.000000     H
    H   1.0     0.526104     0.038316     0.406454  Biso 1.000000     H
    H   1.0     0.463309     0.091157     0.434747  Biso 1.000000     H
    H   1.0     0.963304     0.091156     0.434755  Biso 1.000000     H
    H   1.0     0.123039     0.060368     0.596400  Biso 1.000000     H
    H   1.0     0.623022     0.060361     0.596380  Biso 1.000000     H
    H   1.0     0.133542     0.074763     0.492690  Biso 1.000000     H
    H   1.0     0.633530     0.074769     0.492674  Biso 1.000000     H
    H   1.0     0.174116     0.212826     0.782801  Biso 1.000000     H
    H   1.0     0.674107     0.212822     0.782788  Biso 1.000000     H
    H   1.0     0.171329     0.214535     0.893093  Biso 1.000000     H
    H   1.0     0.671317     0.214519     0.893077  Biso 1.000000     H
    H   1.0     0.431961     0.671351     0.771059  Biso 1.000000     H
    H   1.0     0.931930     0.671348     0.771078  Biso 1.000000     H
    H   1.0    -0.005179     0.571695     0.872179  Biso 1.000000     H
    H   1.0     0.494822     0.571693     0.872165  Biso 1.000000     H
    H   1.0     0.074025     0.390233     0.485027  Biso 1.000000     H
    H   1.0     0.574013     0.390228     0.485019  Biso 1.000000     H
    H   1.0     0.096122     0.620656     0.761555  Biso 1.000000     H
    H   1.0     0.596118     0.620653     0.761550  Biso 1.000000     H
    H   1.0     0.012337     0.014956     0.833872  Biso 1.000000     H
    H   1.0     0.512334     0.014976     0.833892  Biso 1.000000     H
    H   1.0     0.097563     0.837160     0.071110  Biso 1.000000     H
    H   1.0     0.597554     0.837152     0.071105  Biso 1.000000     H
    H   1.0     0.164825     0.404809     0.624214  Biso 1.000000     H
    H   1.0     0.664814     0.404801     0.624204  Biso 1.000000     H
    H   1.0     0.034843     0.945881     0.980012  Biso 1.000000     H
    H   1.0     0.534840     0.945876     0.980004  Biso 1.000000     H
    H   1.0     0.004505     0.623324     0.624756  Biso 1.000000     H
    H   1.0     0.504502     0.623326     0.624754  Biso 1.000000     H
    H   1.0     0.336880     0.747136     0.781991  Biso 1.000000     H
    H   1.0     0.836850     0.747158     0.782043  Biso 1.000000     H
    H   1.0     0.428621     0.107617     0.754564  Biso 1.000000     H
    H   1.0     0.928609     0.107601     0.754542  Biso 1.000000     H
    H   1.0     0.261105     0.848514     0.701688  Biso 1.000000     H
    H   1.0     0.761079     0.848536     0.701731  Biso 1.000000     H
    H   1.0     0.079066     0.569426     0.313929  Biso 1.000000     H
    H   1.0     0.579056     0.569425     0.313924  Biso 1.000000     H
    H   1.0     0.166342     0.650081     0.347787  Biso 1.000000     H
    H   1.0     0.666332     0.650076     0.347780  Biso 1.000000     H
    H   1.0     0.466038     0.697335     0.135276  Biso 1.000000     H
    H   1.0     0.966031     0.697325     0.135280  Biso 1.000000     H
    H   1.0     0.388068     0.698885     0.052412  Biso 1.000000     H
    H   1.0     0.888065     0.698879     0.052413  Biso 1.000000     H
    H   1.0     0.192593     0.730291     0.478338  Biso 1.000000     H
    H   1.0     0.692588     0.730292     0.478329  Biso 1.000000     H
    H   1.0     0.124471     0.730895     0.523958  Biso 1.000000     H
    H   1.0     0.624466     0.730886     0.523951  Biso 1.000000     H
    H   1.0     0.473891     0.961694     0.593489  Biso 1.000000     H
    H   1.0     0.973872     0.961698     0.593483  Biso 1.000000     H
    H   1.0     0.036680     0.908835     0.565195  Biso 1.000000     H
    H   1.0     0.536678     0.908831     0.565195  Biso 1.000000     H
    H   1.0     0.376956     0.939628     0.403557  Biso 1.000000     H
    H   1.0     0.876939     0.939627     0.403542  Biso 1.000000     H
    H   1.0     0.366462     0.925245     0.507274  Biso 1.000000     H
    H   1.0     0.866447     0.925254     0.507262  Biso 1.000000     H
    H   1.0     0.325875     0.787183     0.217162  Biso 1.000000     H
    H   1.0     0.825864     0.787177     0.217154  Biso 1.000000     H
    H   1.0     0.328663     0.785490     0.106872  Biso 1.000000     H
    H   1.0     0.828653     0.785477     0.106863  Biso 1.000000     H
    H   1.0     0.068060     0.328670     0.228858  Biso 1.000000     H
    H   1.0     0.568021     0.328667     0.228873  Biso 1.000000     H
    H   1.0     0.505156     0.428324     0.127771  Biso 1.000000     H
    H   1.0     0.000000     0.428321     0.127763  Biso 1.000000     H
    H   1.0     0.425961     0.609784     0.514915  Biso 1.000000     H
    H   1.0     0.925952     0.609789     0.514911  Biso 1.000000     H
    H   1.0     0.403862     0.379358     0.238389  Biso 1.000000     H
    H   1.0     0.903856     0.379356     0.238392  Biso 1.000000     H
    H   1.0     0.487650     0.985046     0.166030  Biso 1.000000     H
    H   1.0     0.987642     0.985071     0.166083  Biso 1.000000     H
    H   1.0     0.402441     0.162874     0.928819  Biso 1.000000     H
    H   1.0     0.902418     0.162857     0.928833  Biso 1.000000     H
    H   1.0     0.335155     0.595199     0.375732  Biso 1.000000     H
    H   1.0     0.835144     0.595193     0.375731  Biso 1.000000     H
    H   1.0     0.465159     0.054151     0.019915  Biso 1.000000     H
    H   1.0     0.965139     0.054136     0.019925  Biso 1.000000     H
    H   1.0     0.495475     0.376685     0.375186  Biso 1.000000     H
    H   1.0     0.995467     0.376683     0.375192  Biso 1.000000     H
    H   1.0     0.163142     0.252837     0.217878  Biso 1.000000     H
    H   1.0     0.663113     0.252878     0.217951  Biso 1.000000     H
    H   1.0     0.071361     0.892417     0.245416  Biso 1.000000     H
    H   1.0     0.571353     0.892400     0.245368  Biso 1.000000     H
    H   1.0     0.238905     0.151452     0.298197  Biso 1.000000     H
    H   1.0     0.738879     0.151494     0.298263  Biso 1.000000     H
    C   1.0     0.388672     0.350992     0.678958  Biso 1.000000     C
    C   1.0     0.888662     0.350988     0.678962  Biso 1.000000     C
    C   1.0     0.398527     0.327285     0.772193  Biso 1.000000     C
    C   1.0     0.898517     0.327278     0.772196  Biso 1.000000     C
    C   1.0     0.070875     0.275299     0.731363  Biso 1.000000     C
    C   1.0     0.570864     0.275295     0.731354  Biso 1.000000     C
    C   1.0     0.044163     0.195127     0.588182  Biso 1.000000     C
    C   1.0     0.544150     0.195129     0.588172  Biso 1.000000     C
    C   1.0     0.466640     0.263548     0.632512  Biso 1.000000     C
    C   1.0     0.966632     0.263548     0.632517  Biso 1.000000     C
    C   1.0     0.090555     0.337051     0.891324  Biso 1.000000     C
    C   1.0     0.590547     0.337043     0.891317  Biso 1.000000     C
    C   1.0     0.352778     0.240061     0.525316  Biso 1.000000     C
    C   1.0     0.852770     0.240061     0.525320  Biso 1.000000     C
    C   1.0     0.016524     0.110750     0.432571  Biso 1.000000     C
    C   1.0     0.516508     0.110753     0.432559  Biso 1.000000     C
    C   1.0     0.128155     0.116511     0.552390  Biso 1.000000     C
    C   1.0     0.628140     0.116511     0.552376  Biso 1.000000     C
    C   1.0     0.324918     0.121491     0.495846  Biso 1.000000     C
    C   1.0     0.824908     0.121490     0.495851  Biso 1.000000     C
    C   1.0     0.250788     0.337849     0.878399  Biso 1.000000     C
    C   1.0     0.750778     0.337839     0.878393  Biso 1.000000     C
    C   1.0     0.177700     0.263688     0.844334  Biso 1.000000     C
    C   1.0     0.677689     0.263678     0.844323  Biso 1.000000     C
    C   1.0     0.103174     0.452412     0.928995  Biso 1.000000     C
    C   1.0     0.603165     0.452404     0.928987  Biso 1.000000     C
    C   1.0     0.196721     0.201726     0.599516  Biso 1.000000     C
    C   1.0     0.696706     0.201723     0.599510  Biso 1.000000     C
    C   1.0     0.017406     0.182247     0.362579  Biso 1.000000     C
    C   1.0     0.517387     0.182246     0.362562  Biso 1.000000     C
    C   1.0     0.466468     0.709849     0.838257  Biso 1.000000     C
    C   1.0     0.966443     0.709850     0.838272  Biso 1.000000     C
    C   1.0     0.029112     0.504683     0.541270  Biso 1.000000     C
    C   1.0     0.529103     0.504680     0.541266  Biso 1.000000     C
    C   1.0     0.003307     0.655123     0.893108  Biso 1.000000     C
    C   1.0     0.503308     0.655121     0.893096  Biso 1.000000     C
    C   1.0     0.077021     0.446151     0.542856  Biso 1.000000     C
    C   1.0     0.577010     0.446144     0.542850  Biso 1.000000     C
    C   1.0     0.089901     0.572881     0.698203  Biso 1.000000     C
    C   1.0     0.589895     0.572877     0.698198  Biso 1.000000     C
    C   1.0     0.431269     0.873768     0.817018  Biso 1.000000     C
    C   1.0     0.931246     0.873769     0.817034  Biso 1.000000     C
    C   1.0     0.456766     0.976687     0.808480  Biso 1.000000     C
    C   1.0     0.956749     0.976678     0.808475  Biso 1.000000     C
    C   1.0     0.060628     0.804195     0.004127  Biso 1.000000     C
    C   1.0     0.560622     0.804188     0.004119  Biso 1.000000     C
    C   1.0     0.128763     0.452513     0.622310  Biso 1.000000     C
    C   1.0     0.628754     0.452509     0.622301  Biso 1.000000     C
    C   1.0     0.025177     0.863563     0.952868  Biso 1.000000     C
    C   1.0     0.525174     0.863559     0.952859  Biso 1.000000     C
    C   1.0     0.475939     0.816230     0.868553  Biso 1.000000     C
    C   1.0     0.975916     0.816231     0.868568  Biso 1.000000     C
    C   1.0     0.037952     0.572084     0.620936  Biso 1.000000     C
    C   1.0     0.537947     0.572084     0.620931  Biso 1.000000     C
    C   1.0     0.359620     0.826938     0.777680  Biso 1.000000     C
    C   1.0     0.859594     0.826951     0.777716  Biso 1.000000     C
    C   1.0     0.411254     0.027717     0.762617  Biso 1.000000     C
    C   1.0     0.911238     0.027710     0.762610  Biso 1.000000     C
    C   1.0     0.316860     0.882730     0.733486  Biso 1.000000     C
    C   1.0     0.816837     0.882744     0.733517  Biso 1.000000     C
    C   1.0     0.111316     0.649010     0.320983  Biso 1.000000     C
    C   1.0     0.611307     0.649007     0.320977  Biso 1.000000     C
    C   1.0     0.101465     0.672737     0.227755  Biso 1.000000     C
    C   1.0     0.601456     0.672732     0.227748  Biso 1.000000     C
    C   1.0     0.429115     0.724704     0.268589  Biso 1.000000     C
    C   1.0     0.929104     0.724701     0.268588  Biso 1.000000     C
    C   1.0     0.455832     0.804869     0.411773  Biso 1.000000     C
    C   1.0     0.955818     0.804871     0.411769  Biso 1.000000     C
    C   1.0     0.033347     0.736447     0.367433  Biso 1.000000     C
    C   1.0     0.533339     0.736447     0.367430  Biso 1.000000     C
    C   1.0     0.409431     0.662965     0.108624  Biso 1.000000     C
    C   1.0     0.909424     0.662956     0.108625  Biso 1.000000     C
    C   1.0     0.147210     0.759931     0.474628  Biso 1.000000     C
    C   1.0     0.647203     0.759928     0.474623  Biso 1.000000     C
    C   1.0     0.483478     0.889249     0.567384  Biso 1.000000     C
    C   1.0     0.983460     0.889253     0.567379  Biso 1.000000     C
    C   1.0     0.371844     0.883491     0.447572  Biso 1.000000     C
    C   1.0     0.871829     0.883495     0.447562  Biso 1.000000     C
    C   1.0     0.175070     0.878501     0.504099  Biso 1.000000     C
    C   1.0     0.675060     0.878498     0.504098  Biso 1.000000     C
    C   1.0     0.249202     0.662170     0.121556  Biso 1.000000     C
    C   1.0     0.749192     0.662160     0.121551  Biso 1.000000     C
    C   1.0     0.322291     0.736329     0.155625  Biso 1.000000     C
    C   1.0     0.822281     0.736320     0.155619  Biso 1.000000     C
    C   1.0     0.396812     0.547604     0.070951  Biso 1.000000     C
    C   1.0     0.896804     0.547596     0.070951  Biso 1.000000     C
    C   1.0     0.303276     0.798276     0.400457  Biso 1.000000     C
    C   1.0     0.803262     0.798278     0.400452  Biso 1.000000     C
    C   1.0     0.482586     0.817750     0.637373  Biso 1.000000     C
    C   1.0     0.982561     0.817749     0.637365  Biso 1.000000     C
    C   1.0     0.033544     0.290165     0.161666  Biso 1.000000     C
    C   1.0     0.533516     0.290169     0.161675  Biso 1.000000     C
    C   1.0     0.470873     0.495333     0.458673  Biso 1.000000     C
    C   1.0     0.970864     0.495334     0.458675  Biso 1.000000     C
    C   1.0     0.496674     0.344898     0.106837  Biso 1.000000     C
    C   1.0     0.996677     0.344893     0.106832  Biso 1.000000     C
    C   1.0     0.422966     0.553868     0.457084  Biso 1.000000     C
    C   1.0     0.922957     0.553870     0.457082  Biso 1.000000     C
    C   1.0     0.410082     0.427133     0.301741  Biso 1.000000     C
    C   1.0     0.910076     0.427133     0.301743  Biso 1.000000     C
    C   1.0     0.068739     0.126242     0.182902  Biso 1.000000     C
    C   1.0     0.568719     0.126251     0.182911  Biso 1.000000     C
    C   1.0     0.043231     0.023340     0.191473  Biso 1.000000     C
    C   1.0     0.543218     0.023334     0.191449  Biso 1.000000     C
    C   1.0     0.439369     0.195835     0.995807  Biso 1.000000     C
    C   1.0     0.939355     0.195822     0.995815  Biso 1.000000     C
    C   1.0     0.371217     0.547494     0.377634  Biso 1.000000     C
    C   1.0     0.871205     0.547487     0.377634  Biso 1.000000     C
    C   1.0     0.474819     0.136465     0.047065  Biso 1.000000     C
    C   1.0     0.974807     0.136453     0.047070  Biso 1.000000     C
    C   1.0     0.024071     0.183784     0.131369  Biso 1.000000     C
    C   1.0     0.524053     0.183792     0.131372  Biso 1.000000     C
    C   1.0     0.462027     0.427922     0.379010  Biso 1.000000     C
    C   1.0     0.962016     0.427915     0.379015  Biso 1.000000     C
    C   1.0     0.140393     0.173050     0.222214  Biso 1.000000     C
    C   1.0     0.640368     0.173078     0.222259  Biso 1.000000     C
    C   1.0     0.088738     0.972304     0.237341  Biso 1.000000     C
    C   1.0     0.588726     0.972299     0.237317  Biso 1.000000     C
    C   1.0     0.183146     0.117252     0.266417  Biso 1.000000     C
    C   1.0     0.683123     0.117281     0.266459  Biso 1.000000     C
    N   1.0     0.012503     0.304108     0.717036  Biso 1.000000     N
    N   1.0     0.512493     0.304105     0.717030  Biso 1.000000     N
    N   1.0     0.401960     0.277621     0.615566  Biso 1.000000     N
    N   1.0     0.901952     0.277621     0.615570  Biso 1.000000     N
    N   1.0     0.090266     0.220564     0.673702  Biso 1.000000     N
    N   1.0     0.590254     0.220559     0.673692  Biso 1.000000     N
    N   1.0     0.480531     0.211972     0.565768  Biso 1.000000     N
    N   1.0     0.980525     0.211973     0.565775  Biso 1.000000     N
    N   1.0     0.064530     0.149455     0.524448  Biso 1.000000     N
    N   1.0     0.564517     0.149459     0.524435  Biso 1.000000     N
    N   1.0     0.121167     0.315016     0.820622  Biso 1.000000     N
    N   1.0     0.621158     0.315009     0.820613  Biso 1.000000     N
    N   1.0     0.049439     0.701094    -0.024561  Biso 1.000000     N
    N   1.0     0.549434     0.701088    -0.024570  Biso 1.000000     N
    N   1.0     0.134369     0.512943     0.699834  Biso 1.000000     N
    N   1.0     0.634363     0.512939     0.699827  Biso 1.000000     N
    N   1.0     0.341840    -0.017874     0.725958  Biso 1.000000     N
    N   1.0     0.841822    -0.017871     0.725968  Biso 1.000000     N
    N   1.0     0.487488     0.695897     0.282910  Biso 1.000000     N
    N   1.0     0.987476     0.695893     0.282913  Biso 1.000000     N
    N   1.0     0.098026     0.722371     0.384379  Biso 1.000000     N
    N   1.0     0.598019     0.722372     0.384374  Biso 1.000000     N
    N   1.0     0.409725     0.779434     0.326254  Biso 1.000000     N
    N   1.0     0.909714     0.779436     0.326249  Biso 1.000000     N
    N   1.0     0.019456     0.788023     0.434176  Biso 1.000000     N
    N   1.0     0.519449     0.788018     0.434176  Biso 1.000000     N
    N   1.0     0.435469     0.850547     0.475510  Biso 1.000000     N
    N   1.0     0.935454     0.850553     0.475503  Biso 1.000000     N
    N   1.0     0.378822     0.684996     0.179330  Biso 1.000000     N
    N   1.0     0.878812     0.684989     0.179327  Biso 1.000000     N
    N   1.0     0.450551     0.298933     0.000000  Biso 1.000000     N
    N   1.0     0.950544     0.298923     0.000000  Biso 1.000000     N
    N   1.0     0.365613     0.487067     0.300108  Biso 1.000000     N
    N   1.0     0.865605     0.487065     0.300108  Biso 1.000000     N
    N   1.0     0.158155     0.000000     0.273977  Biso 1.000000     N
    N   1.0     0.658139     0.000000     0.273985  Biso 1.000000     N
    O   1.0     0.327346     0.062591     0.552457  Biso 1.000000     O
    O   1.0     0.827335     0.062592     0.552463  Biso 1.000000     O
    O   1.0     0.411639     0.411303     0.831579  Biso 1.000000     O
    O   1.0     0.911631     0.411295     0.831585  Biso 1.000000     O
    O   1.0     0.391229     0.237942     0.788321  Biso 1.000000     O
    O   1.0     0.891217     0.237934     0.788321  Biso 1.000000     O
    O   1.0     0.298173     0.088595     0.411724  Biso 1.000000     O
    O   1.0     0.798164     0.088594     0.411728  Biso 1.000000     O
    O   1.0     0.298910     0.300619     0.916913  Biso 1.000000     O
    O   1.0     0.798899     0.300609     0.916912  Biso 1.000000     O
    O   1.0     0.261178     0.431658     0.864354  Biso 1.000000     O
    O   1.0     0.761169     0.431648     0.864348  Biso 1.000000     O
    O   1.0     0.075248     0.471290    -0.012999  Biso 1.000000     O
    O   1.0     0.575237     0.471282    -0.013009  Biso 1.000000     O
    O   1.0     0.140119     0.523446     0.902674  Biso 1.000000     O
    O   1.0     0.640112     0.523437     0.902667  Biso 1.000000     O
    O   1.0     0.205560     0.292196     0.586949  Biso 1.000000     O
    O   1.0     0.705550     0.292193     0.586944  Biso 1.000000     O
    O   1.0     0.246087     0.171467     0.653021  Biso 1.000000     O
    O   1.0     0.746068     0.171462     0.653022  Biso 1.000000     O
    O   1.0     0.056513     0.274892     0.386511  Biso 1.000000     O
    O   1.0     0.556494     0.274891     0.386493  Biso 1.000000     O
    O   1.0     0.476094     0.136954     0.285578  Biso 1.000000     O
    O   1.0     0.976098     0.136964     0.285590  Biso 1.000000     O
    O   1.0     0.172647     0.937402     0.447489  Biso 1.000000     O
    O   1.0     0.672636     0.937403     0.447492  Biso 1.000000     O
    O   1.0     0.088344     0.588729     0.168354  Biso 1.000000     O
    O   1.0     0.588334     0.588723     0.168348  Biso 1.000000     O
    O   1.0     0.108772     0.762089     0.211648  Biso 1.000000     O
    O   1.0     0.608764     0.762084     0.211641  Biso 1.000000     O
    O   1.0     0.201810     0.911398     0.588221  Biso 1.000000     O
    O   1.0     0.701800     0.911391     0.588221  Biso 1.000000     O
    O   1.0     0.201081     0.699400     0.083037  Biso 1.000000     O
    O   1.0     0.701071     0.699390     0.083031  Biso 1.000000     O
    O   1.0     0.238808     0.568362     0.135604  Biso 1.000000     O
    O   1.0     0.738799     0.568353     0.135600  Biso 1.000000     O
    O   1.0     0.424736     0.528727     0.000000  Biso 1.000000     O
    O   1.0     0.924727     0.528717     0.000000  Biso 1.000000     O
    O   1.0     0.359867     0.476570     0.097272  Biso 1.000000     O
    O   1.0     0.859860     0.476561     0.097274  Biso 1.000000     O
    O   1.0     0.294432     0.707814     0.413045  Biso 1.000000     O
    O   1.0     0.794422     0.707816     0.413040  Biso 1.000000     O
    O   1.0     0.253913     0.828527     0.346938  Biso 1.000000     O
    O   1.0     0.753895     0.828527     0.346937  Biso 1.000000     O
    O   1.0     0.443467     0.725114     0.613437  Biso 1.000000     O
    O   1.0     0.943444     0.725111     0.613421  Biso 1.000000     O
    O   1.0     0.023871     0.863033     0.714353  Biso 1.000000     O
    O   1.0     0.523882     0.863032     0.714359  Biso 1.000000     O
   Zn   1.0     0.277752     0.049490     0.642924  Biso 1.000000    Zn
   Zn   1.0     0.777738     0.049489     0.642926  Biso 1.000000    Zn
   Zn   1.0     0.399993     0.380656     0.942926  Biso 1.000000    Zn
   Zn   1.0     0.899982     0.380642     0.942929  Biso 1.000000    Zn
   Zn   1.0     0.177384     0.471570     0.811154  Biso 1.000000    Zn
   Zn   1.0     0.677376     0.471562     0.811146  Biso 1.000000    Zn
   Zn   1.0     0.222235     0.950495     0.357016  Biso 1.000000    Zn
   Zn   1.0     0.722221     0.950499     0.357016  Biso 1.000000    Zn
   Zn   1.0     0.099995     0.619375     0.057010  Biso 1.000000    Zn
   Zn   1.0     0.599985     0.619364     0.057002  Biso 1.000000    Zn
   Zn   1.0     0.322599     0.528435     0.188787  Biso 1.000000    Zn
   Zn   1.0     0.822590     0.528429     0.188786  Biso 1.000000    Zn
