#======================================================================

# CRYSTAL DATA

#----------------------------------------------------------------------

data_VESTA_phase_1


_pd_phase_name                         MOF
_cell_length_a                         7.92400
_cell_length_b                         16.03000
_cell_length_c                         16.02500
_cell_angle_alpha                      89.15900
_cell_angle_beta                       83.09100
_cell_angle_gamma                      83.10400
_symmetry_space_group_name_H-M         "P 1"
_symmetry_Int_Tables_number            1

loop_
_symmetry_equiv_pos_as_xyz
   "x, y, z"

loop_
   _atom_site_label
   _atom_site_occupancy
   _atom_site_fract_x
   _atom_site_fract_y
   _atom_site_fract_z
   _atom_site_adp_type
   _atom_site_B_iso_or_equiv
   _atom_site_type_symbol
    H   1.0     0.276182     0.139560     0.561668  Biso 1.000000     H
    H   1.0     0.776154     0.139547     0.561693  Biso 1.000000     H
    H   1.0     0.126582     0.360506     0.939012  Biso 1.000000     H
    H   1.0     0.626482     0.360504     0.938980  Biso 1.000000     H
    H   1.0     0.057681     0.938226     0.139401  Biso 1.000000     H
    H   1.0     0.557718     0.938256     0.139410  Biso 1.000000     H
    H   1.0     0.095661     0.561098     0.360296  Biso 1.000000     H
    H   1.0     0.595701     0.561095     0.360298  Biso 1.000000     H
    H   1.0     0.223844     0.860453     0.438313  Biso 1.000000     H
    H   1.0     0.723815     0.860438     0.438335  Biso 1.000000     H
    H   1.0     0.373502     0.639492     0.061025  Biso 1.000000     H
    H   1.0     0.873429     0.639496     0.060988  Biso 1.000000     H
    H   1.0     0.442292     0.061745     0.860592  Biso 1.000000     H
    H   1.0     0.942318     0.061773     0.860604  Biso 1.000000     H
    H   1.0     0.404286     0.438899     0.639701  Biso 1.000000     H
    H   1.0     0.904352     0.438910     0.639711  Biso 1.000000     H
    C   1.0     0.442856     0.071311     0.679977  Biso 1.000000     C
    C   1.0     0.942851     0.071293     0.679993  Biso 1.000000     C
    C   1.0     0.335896     0.000000     0.573366  Biso 1.000000     C
    C   1.0     0.835873     0.000000     0.573391  Biso 1.000000     C
    C   1.0     0.265264     0.079098     0.533850  Biso 1.000000     C
    C   1.0     0.765230     0.079084     0.533878  Biso 1.000000     C
    C   1.0     0.316333     0.924173     0.536389  Biso 1.000000     C
    C   1.0     0.816309     0.924156     0.536411  Biso 1.000000     C
    C   1.0     0.317957     0.429257     0.820720  Biso 1.000000     C
    C   1.0     0.817785     0.429249     0.820662  Biso 1.000000     C
    C   1.0     0.123840     0.495899     0.926678  Biso 1.000000     C
    C   1.0     0.623772     0.495896     0.926652  Biso 1.000000     C
    C   1.0     0.071706     0.420947     0.966544  Biso 1.000000     C
    C   1.0     0.571649     0.420945     0.966528  Biso 1.000000     C
    C   1.0     0.045792     0.575916     0.963265  Biso 1.000000     C
    C   1.0     0.545807     0.575912     0.963265  Biso 1.000000     C
    C   1.0     0.282014     0.820185     0.070495  Biso 1.000000     C
    C   1.0     0.782159     0.820198     0.070499  Biso 1.000000     C
    C   1.0     0.121573     0.926600     0.000000  Biso 1.000000     C
    C   1.0     0.621668     0.926626     0.000000  Biso 1.000000     C
    C   1.0     0.032629     0.966108     0.079016  Biso 1.000000     C
    C   1.0     0.532660     0.966122     0.079018  Biso 1.000000     C
    C   1.0     0.083084     0.963631     0.923959  Biso 1.000000     C
    C   1.0     0.583175     0.963644     0.923966  Biso 1.000000     C
    C   1.0     0.229770     0.679316     0.428597  Biso 1.000000     C
    C   1.0     0.729736     0.679310     0.428603  Biso 1.000000     C
    C   1.0     0.088265     0.573275     0.495685  Biso 1.000000     C
    C   1.0     0.588224     0.573279     0.495689  Biso 1.000000     C
    C   1.0     0.054666     0.533524     0.420825  Biso 1.000000     C
    C   1.0     0.554705     0.533515     0.420823  Biso 1.000000     C
    C   1.0     0.028797     0.536615     0.575849  Biso 1.000000     C
    C   1.0     0.528737     0.536621     0.575850  Biso 1.000000     C
    C   1.0     0.057148     0.928701     0.320013  Biso 1.000000     C
    C   1.0     0.557149     0.928693     0.320023  Biso 1.000000     C
    C   1.0     0.164130    -0.004230     0.426612  Biso 1.000000     C
    C   1.0     0.664095    -0.004246     0.426641  Biso 1.000000     C
    C   1.0     0.234766     0.920916     0.466128  Biso 1.000000     C
    C   1.0     0.734734     0.920899     0.466154  Biso 1.000000     C
    C   1.0     0.183697     0.075841     0.463590  Biso 1.000000     C
    C   1.0     0.683657     0.075827     0.463620  Biso 1.000000     C
    C   1.0     0.182210     0.570747     0.179347  Biso 1.000000     C
    C   1.0     0.682049     0.570744     0.179277  Biso 1.000000     C
    C   1.0     0.376216     0.504101     0.073353  Biso 1.000000     C
    C   1.0     0.876168     0.504103     0.073321  Biso 1.000000     C
    C   1.0     0.428338     0.579052     0.033478  Biso 1.000000     C
    C   1.0     0.928301     0.579055     0.033454  Biso 1.000000     C
    C   1.0     0.454182     0.424084     0.036741  Biso 1.000000     C
    C   1.0     0.954214     0.424086     0.036733  Biso 1.000000     C
    C   1.0     0.217849     0.179801     0.929501  Biso 1.000000     C
    C   1.0     0.717990     0.179816     0.929511  Biso 1.000000     C
    C   1.0     0.378335     0.073373    -0.003950  Biso 1.000000     C
    C   1.0     0.878431     0.073401    -0.003934  Biso 1.000000     C
    C   1.0     0.467346     0.033877     0.920983  Biso 1.000000     C
    C   1.0     0.967369     0.033892     0.920990  Biso 1.000000     C
    C   1.0     0.416830     0.036355     0.076036  Biso 1.000000     C
    C   1.0     0.916915     0.036369     0.076047  Biso 1.000000     C
    C   1.0     0.270243     0.320688     0.571398  Biso 1.000000     C
    C   1.0     0.770257     0.320687     0.571410  Biso 1.000000     C
    C   1.0     0.411766     0.426714     0.504310  Biso 1.000000     C
    C   1.0     0.911743     0.426734     0.504323  Biso 1.000000     C
    C   1.0     0.445285     0.466478     0.579176  Biso 1.000000     C
    C   1.0     0.945342     0.466485     0.579182  Biso 1.000000     C
    C   1.0     0.471254     0.463372     0.424149  Biso 1.000000     C
    C   1.0     0.971208     0.463396     0.424159  Biso 1.000000     C
    N   1.0     0.471901     0.125944     0.723141  Biso 1.000000     N
    N   1.0     0.971953     0.125924     0.723143  Biso 1.000000     N
    N   1.0     0.418911     0.000000     0.641296  Biso 1.000000     N
    N   1.0     0.918884     0.000000     0.641321  Biso 1.000000     N
    N   1.0     0.397452     0.374930     0.778173  Biso 1.000000     N
    N   1.0     0.897224     0.374914     0.778104  Biso 1.000000     N
    N   1.0     0.239813     0.496564     0.858841  Biso 1.000000     N
    N   1.0     0.739697     0.496560     0.858793  Biso 1.000000     N
    N   1.0     0.334387     0.777435     0.124867  Biso 1.000000     N
    N   1.0     0.834558     0.777404     0.124838  Biso 1.000000     N
    N   1.0     0.237577     0.858692     0.000000  Biso 1.000000     N
    N   1.0     0.737723     0.858737     0.000000  Biso 1.000000     N
    N   1.0     0.287101     0.722069     0.374025  Biso 1.000000     N
    N   1.0     0.787112     0.722032     0.374016  Biso 1.000000     N
    N   1.0     0.171311     0.641083     0.496115  Biso 1.000000     N
    N   1.0     0.671229     0.641100     0.496126  Biso 1.000000     N
    N   1.0     0.028042     0.874065     0.276870  Biso 1.000000     N
    N   1.0     0.528113     0.874064     0.276852  Biso 1.000000     N
    N   1.0     0.081122    -0.003790     0.358678  Biso 1.000000     N
    N   1.0     0.581080    -0.003807     0.358713  Biso 1.000000     N
    N   1.0     0.102779     0.625081     0.221909  Biso 1.000000     N
    N   1.0     0.602544     0.625072     0.221821  Biso 1.000000     N
    N   1.0     0.260293     0.503436     0.141213  Biso 1.000000     N
    N   1.0     0.760194     0.503438     0.141158  Biso 1.000000     N
    N   1.0     0.165458     0.222595     0.875161  Biso 1.000000     N
    N   1.0     0.665610     0.222566     0.875140  Biso 1.000000     N
    N   1.0     0.262277     0.141261    -0.003173  Biso 1.000000     N
    N   1.0     0.762430     0.141310    -0.003148  Biso 1.000000     N
    N   1.0     0.212859     0.277970     0.625986  Biso 1.000000     N
    N   1.0     0.712940     0.277931     0.625982  Biso 1.000000     N
    N   1.0     0.328760     0.358893     0.503874  Biso 1.000000     N
    N   1.0     0.828699     0.358926     0.503892  Biso 1.000000     N
   Cl   1.0     0.399063     0.833016     0.581973  Biso 1.000000    Cl
   Cl   1.0     0.899073     0.833001     0.581985  Biso 1.000000    Cl
   Cl   1.0     0.105251     0.667176     0.917413  Biso 1.000000    Cl
   Cl   1.0     0.605261     0.667171     0.917409  Biso 1.000000    Cl
   Cl   1.0     0.187223     0.918171     0.832595  Biso 1.000000    Cl
   Cl   1.0     0.687351     0.918188     0.832607  Biso 1.000000    Cl
   Cl   1.0     0.066733     0.582394     0.666994  Biso 1.000000    Cl
   Cl   1.0     0.566639     0.582404     0.666999  Biso 1.000000    Cl
   Cl   1.0     0.100942     0.166998     0.418013  Biso 1.000000    Cl
   Cl   1.0     0.600917     0.166982     0.418038  Biso 1.000000    Cl
   Cl   1.0     0.394730     0.332825     0.082599  Biso 1.000000    Cl
   Cl   1.0     0.894752     0.332827     0.082584  Biso 1.000000    Cl
   Cl   1.0     0.312653     0.081811     0.167394  Biso 1.000000    Cl
   Cl   1.0     0.812777     0.081829     0.167411  Biso 1.000000    Cl
   Cl   1.0     0.433354     0.417588     0.333000  Biso 1.000000    Cl
   Cl   1.0     0.933269     0.417618     0.333014  Biso 1.000000    Cl
   Ag   1.0     0.061954     0.250516     0.750482  Biso 1.000000    Ag
   Ag   1.0     0.562010     0.250503     0.750484  Biso 1.000000    Ag
   Ag   1.0     0.437998     0.749502     0.249520  Biso 1.000000    Ag
   Ag   1.0     0.938044     0.749478     0.249521  Biso 1.000000    Ag
