#======================================================================

# CRYSTAL DATA

#----------------------------------------------------------------------

data_VESTA_phase_1


_pd_phase_name                         MOF
_cell_length_a                         20.36500
_cell_length_b                         17.89400
_cell_length_c                         19.84500
_cell_angle_alpha                      90.02100
_cell_angle_beta                       90.01300
_cell_angle_gamma                      89.97700
_symmetry_space_group_name_H-M         "P 1"
_symmetry_Int_Tables_number            1

loop_
_symmetry_equiv_pos_as_xyz
   "x, y, z"

loop_
   _atom_site_label
   _atom_site_occupancy
   _atom_site_fract_x
   _atom_site_fract_y
   _atom_site_fract_z
   _atom_site_adp_type
   _atom_site_B_iso_or_equiv
   _atom_site_type_symbol
    H   1.0     0.063662     0.947672     0.687700  Biso 1.000000     H
    H   1.0     0.563603     0.947813     0.687909  Biso 1.000000     H
    H   1.0     0.186039     0.859530     0.540289  Biso 1.000000     H
    H   1.0     0.685725     0.860004     0.538326  Biso 1.000000     H
    H   1.0     0.394980     0.939657     0.510428  Biso 1.000000     H
    H   1.0     0.895127     0.939206     0.510168  Biso 1.000000     H
    H   1.0     0.087258     0.012680     0.580592  Biso 1.000000     H
    H   1.0     0.587251     0.012799     0.580783  Biso 1.000000     H
    H   1.0     0.002932     0.743919     0.565770  Biso 1.000000     H
    H   1.0     0.502525     0.745110     0.565754  Biso 1.000000     H
    H   1.0     0.154461     0.893064     0.422408  Biso 1.000000     H
    H   1.0     0.653448     0.892775     0.420477  Biso 1.000000     H
    H   1.0     0.379964     0.878854     0.621269  Biso 1.000000     H
    H   1.0     0.880165     0.878377     0.621005  Biso 1.000000     H
    H   1.0     0.047146     0.850817     0.376374  Biso 1.000000     H
    H   1.0     0.545815     0.850320     0.375370  Biso 1.000000     H
    H   1.0     0.470442     0.775368     0.447888  Biso 1.000000     H
    H   1.0     0.971470     0.775144     0.447932  Biso 1.000000     H
    H   1.0     0.063521     0.552100     0.812660  Biso 1.000000     H
    H   1.0     0.563476     0.551918     0.811810  Biso 1.000000     H
    H   1.0     0.186097     0.640752     0.961874  Biso 1.000000     H
    H   1.0     0.685859     0.639788     0.961583  Biso 1.000000     H
    H   1.0     0.395058     0.560511    -0.010584  Biso 1.000000     H
    H   1.0     0.894803     0.560141    -0.010033  Biso 1.000000     H
    H   1.0     0.087243     0.487294     0.919854  Biso 1.000000     H
    H   1.0     0.587206     0.486996     0.918965  Biso 1.000000     H
    H   1.0     0.002335     0.754628     0.934310  Biso 1.000000     H
    H   1.0     0.502673     0.754931     0.934303  Biso 1.000000     H
    H   1.0     0.153977     0.607850     0.079726  Biso 1.000000     H
    H   1.0     0.653651     0.606929     0.079420  Biso 1.000000     H
    H   1.0     0.379957     0.621240     0.878524  Biso 1.000000     H
    H   1.0     0.879741     0.620853     0.879064  Biso 1.000000     H
    H   1.0     0.046086     0.649636     0.124723  Biso 1.000000     H
    H   1.0     0.546060     0.649466     0.124591  Biso 1.000000     H
    H   1.0     0.470664     0.724609     0.052168  Biso 1.000000     H
    H   1.0     0.970385     0.724169     0.052147  Biso 1.000000     H
    H   1.0     0.186842     0.052459     0.187925  Biso 1.000000     H
    H   1.0     0.686479     0.052100     0.187869  Biso 1.000000     H
    H   1.0     0.064296     0.140166     0.037910  Biso 1.000000     H
    H   1.0     0.564305     0.140258     0.038126  Biso 1.000000     H
    H   1.0     0.356361     0.061026     0.000000  Biso 1.000000     H
    H   1.0     0.855059     0.060124     0.000000  Biso 1.000000     H
    H   1.0     0.163778     0.987631     0.080538  Biso 1.000000     H
    H   1.0     0.662751     0.987160     0.080684  Biso 1.000000     H
    H   1.0     0.247544     0.254845     0.066023  Biso 1.000000     H
    H   1.0     0.747627     0.254859     0.065917  Biso 1.000000     H
    H   1.0     0.096923     0.107279     0.920172  Biso 1.000000     H
    H   1.0     0.596634     0.107527     0.920268  Biso 1.000000     H
    H   1.0     0.370777     0.121656     0.122489  Biso 1.000000     H
    H   1.0     0.870129     0.120934     0.121298  Biso 1.000000     H
    H   1.0     0.204774     0.149488     0.875509  Biso 1.000000     H
    H   1.0     0.704365     0.149820     0.875363  Biso 1.000000     H
    H   1.0     0.279977     0.224422     0.948313  Biso 1.000000     H
    H   1.0     0.779767     0.224614     0.948070  Biso 1.000000     H
    H   1.0     0.184104     0.448548     0.313604  Biso 1.000000     H
    H   1.0     0.686584     0.448175     0.311976  Biso 1.000000     H
    H   1.0     0.063853     0.359406     0.462092  Biso 1.000000     H
    H   1.0     0.564923     0.360346     0.461845  Biso 1.000000     H
    H   1.0     0.355295     0.440569     0.488503  Biso 1.000000     H
    H   1.0     0.855051     0.439660     0.489602  Biso 1.000000     H
    H   1.0     0.161736     0.513059     0.421322  Biso 1.000000     H
    H   1.0     0.662903     0.513178     0.419133  Biso 1.000000     H
    H   1.0     0.247678     0.245796     0.434095  Biso 1.000000     H
    H   1.0     0.747800     0.244700     0.434001  Biso 1.000000     H
    H   1.0     0.096212     0.392344     0.579889  Biso 1.000000     H
    H   1.0     0.597504     0.392995     0.579640  Biso 1.000000     H
    H   1.0     0.368991     0.380270     0.377203  Biso 1.000000     H
    H   1.0     0.870099     0.378832     0.378729  Biso 1.000000     H
    H   1.0     0.204244     0.350701     0.624656  Biso 1.000000     H
    H   1.0     0.705121     0.350132     0.624508  Biso 1.000000     H
    H   1.0     0.279884     0.276285     0.551877  Biso 1.000000     H
    H   1.0     0.780178     0.274858     0.551798  Biso 1.000000     H
    H   1.0     0.435949     0.052831     0.312568  Biso 1.000000     H
    H   1.0     0.936526     0.051917     0.312021  Biso 1.000000     H
    H   1.0     0.314691     0.141755     0.461360  Biso 1.000000     H
    H   1.0     0.814479     0.139776     0.461645  Biso 1.000000     H
    H   1.0     0.104963     0.060246     0.489658  Biso 1.000000     H
    H   1.0     0.605059     0.060115     0.489600  Biso 1.000000     H
    H   1.0     0.412413     0.987753     0.419667  Biso 1.000000     H
    H   1.0     0.912860     0.986844     0.419102  Biso 1.000000     H
    H   1.0     0.498079     0.256302     0.434056  Biso 1.000000     H
    H   1.0     0.997570     0.254882     0.434166  Biso 1.000000     H
    H   1.0     0.347323     0.107829     0.578831  Biso 1.000000     H
    H   1.0     0.846837     0.107008     0.579470  Biso 1.000000     H
    H   1.0     0.119995     0.121143     0.378862  Biso 1.000000     H
    H   1.0     0.619931     0.121082     0.378802  Biso 1.000000     H
    H   1.0     0.455234     0.149491     0.623816  Biso 1.000000     H
    H   1.0     0.954439     0.149595     0.624549  Biso 1.000000     H
    H   1.0     0.029702     0.224642     0.552009  Biso 1.000000     H
    H   1.0     0.530533     0.224860     0.551555  Biso 1.000000     H
    H   1.0     0.436698     0.448507     0.187730  Biso 1.000000     H
    H   1.0     0.936450     0.447812     0.188263  Biso 1.000000     H
    H   1.0     0.314272     0.360021     0.038422  Biso 1.000000     H
    H   1.0     0.814361     0.359826     0.038136  Biso 1.000000     H
    H   1.0     0.105081     0.440006     0.000000  Biso 1.000000     H
    H   1.0     0.604951     0.439380     0.000000  Biso 1.000000     H
    H   1.0     0.412990     0.513388     0.080556  Biso 1.000000     H
    H   1.0     0.912683     0.512796     0.081142  Biso 1.000000     H
    H   1.0     0.497519     0.245000     0.065774  Biso 1.000000     H
    H   1.0     0.997709     0.245153     0.065980  Biso 1.000000     H
    H   1.0     0.346469     0.392807     0.920565  Biso 1.000000     H
    H   1.0     0.846787     0.392601     0.920345  Biso 1.000000     H
    H   1.0     0.120187     0.379142     0.121685  Biso 1.000000     H
    H   1.0     0.620034     0.378700     0.120889  Biso 1.000000     H
    H   1.0     0.454078     0.350295     0.875425  Biso 1.000000     H
    H   1.0     0.954575     0.350293     0.875496  Biso 1.000000     H
    H   1.0     0.029923     0.275440     0.948193  Biso 1.000000     H
    H   1.0     0.529507     0.275252     0.947901  Biso 1.000000     H
    H   1.0     0.316084     0.948142     0.812986  Biso 1.000000     H
    H   1.0     0.813498     0.947882     0.812099  Biso 1.000000     H
    H   1.0     0.436523     0.859937     0.962140  Biso 1.000000     H
    H   1.0     0.935721     0.859619     0.962001  Biso 1.000000     H
    H   1.0     0.146385     0.940595    -0.010653  Biso 1.000000     H
    H   1.0     0.644975     0.939618    -0.010393  Biso 1.000000     H
    H   1.0     0.339157     0.013326     0.920229  Biso 1.000000     H
    H   1.0     0.837223     0.012763     0.919311  Biso 1.000000     H
    H   1.0     0.253245     0.745115     0.934795  Biso 1.000000     H
    H   1.0     0.752390     0.745075     0.934079  Biso 1.000000     H
    H   1.0     0.404239     0.893072     0.079921  Biso 1.000000     H
    H   1.0     0.903362     0.892264     0.079867  Biso 1.000000     H
    H   1.0     0.131974     0.879588     0.878463  Biso 1.000000     H
    H   1.0     0.629899     0.878886     0.878684  Biso 1.000000     H
    H   1.0     0.296530     0.850937     0.124988  Biso 1.000000     H
    H   1.0     0.795609     0.849961     0.124712  Biso 1.000000     H
    H   1.0     0.221116     0.775841     0.052544  Biso 1.000000     H
    H   1.0     0.720221     0.775228     0.051937  Biso 1.000000     H
    H   1.0     0.316089     0.551864     0.687800  Biso 1.000000     H
    H   1.0     0.813537     0.552016     0.687882  Biso 1.000000     H
    H   1.0     0.435938     0.640678     0.537784  Biso 1.000000     H
    H   1.0     0.935621     0.640204     0.538045  Biso 1.000000     H
    H   1.0     0.144903     0.559606     0.512878  Biso 1.000000     H
    H   1.0     0.645057     0.560547     0.510268  Biso 1.000000     H
    H   1.0     0.338520     0.487326     0.580096  Biso 1.000000     H
    H   1.0     0.837281     0.487188     0.580657  Biso 1.000000     H
    H   1.0     0.252243     0.754355     0.566366  Biso 1.000000     H
    H   1.0     0.752361     0.755052     0.565877  Biso 1.000000     H
    H   1.0     0.403235     0.607798     0.420069  Biso 1.000000     H
    H   1.0     0.903276     0.607676     0.420146  Biso 1.000000     H
    H   1.0     0.131168     0.619972     0.624151  Biso 1.000000     H
    H   1.0     0.629952     0.621214     0.621205  Biso 1.000000     H
    H   1.0     0.295079     0.649470     0.375651  Biso 1.000000     H
    H   1.0     0.795570     0.650204     0.375232  Biso 1.000000     H
    H   1.0     0.219665     0.723901     0.448671  Biso 1.000000     H
    H   1.0     0.720204     0.725016     0.447985  Biso 1.000000     H
    C   1.0     0.096821     0.798831     0.559725  Biso 1.000000     C
    C   1.0     0.596477     0.799754     0.558752  Biso 1.000000     C
    C   1.0     0.028987     0.948991     0.646083  Biso 1.000000     C
    C   1.0     0.528906     0.949221     0.646312  Biso 1.000000     C
    C   1.0     0.139455     0.840998     0.519142  Biso 1.000000     C
    C   1.0     0.638957     0.841463     0.517615  Biso 1.000000     C
    C   1.0     0.493920     0.982799     0.532019  Biso 1.000000     C
    C   1.0     0.994022     0.982479     0.531776  Biso 1.000000     C
    C   1.0     0.434381     0.943801     0.547261  Biso 1.000000     C
    C   1.0     0.934530     0.943380     0.547001  Biso 1.000000     C
    C   1.0     0.040444     0.984027     0.585882  Biso 1.000000     C
    C   1.0     0.540395     0.984235     0.586098  Biso 1.000000     C
    C   1.0     0.036258     0.775430     0.533623  Biso 1.000000     C
    C   1.0     0.535714     0.776305     0.533207  Biso 1.000000     C
    C   1.0     0.121683     0.859380     0.453448  Biso 1.000000     C
    C   1.0     0.620808     0.859392     0.451931  Biso 1.000000     C
    C   1.0     0.424185     0.909472     0.608041  Biso 1.000000     C
    C   1.0     0.924363     0.909039     0.607783  Biso 1.000000     C
    C   1.0     0.061311     0.835558     0.427553  Biso 1.000000     C
    C   1.0     0.560250     0.835475     0.426570  Biso 1.000000     C
    C   1.0     0.018768     0.793478     0.467631  Biso 1.000000     C
    C   1.0     0.517883     0.793810     0.467188  Biso 1.000000     C
    C   1.0     0.115588     0.780045     0.630490  Biso 1.000000     C
    C   1.0     0.615737     0.781433     0.629476  Biso 1.000000     C
    C   1.0     0.096545     0.700465     0.941367  Biso 1.000000     C
    C   1.0     0.596600     0.700145     0.941230  Biso 1.000000     C
    C   1.0     0.028823     0.550712     0.854236  Biso 1.000000     C
    C   1.0     0.528836     0.550620     0.853443  Biso 1.000000     C
    C   1.0     0.139232     0.659026     0.982552  Biso 1.000000     C
    C   1.0     0.639104     0.658348     0.982320  Biso 1.000000     C
    C   1.0     0.493984     0.517267     0.967803  Biso 1.000000     C
    C   1.0     0.993880     0.517241     0.968526  Biso 1.000000     C
    C   1.0     0.434444     0.556330     0.952576  Biso 1.000000     C
    C   1.0     0.934260     0.556097     0.953191  Biso 1.000000     C
    C   1.0     0.040346     0.515781     0.914484  Biso 1.000000     C
    C   1.0     0.540375     0.515645     0.913675  Biso 1.000000     C
    C   1.0     0.035664     0.723593     0.966870  Biso 1.000000     C
    C   1.0     0.535863     0.723643     0.966813  Biso 1.000000     C
    C   1.0     0.121164     0.641022     0.048237  Biso 1.000000     C
    C   1.0     0.621000     0.640390     0.048004  Biso 1.000000     C
    C   1.0     0.424186     0.590593     0.891767  Biso 1.000000     C
    C   1.0     0.924026     0.590346     0.892370  Biso 1.000000     C
    C   1.0     0.060465     0.664570     0.073539  Biso 1.000000     C
    C   1.0     0.560462     0.664345     0.073400  Biso 1.000000     C
    C   1.0     0.017903     0.705998     0.032884  Biso 1.000000     C
    C   1.0     0.518080     0.706116     0.032835  Biso 1.000000     C
    C   1.0     0.115725     0.718801     0.870631  Biso 1.000000     C
    C   1.0     0.615804     0.718503     0.870512  Biso 1.000000     C
    C   1.0     0.153553     0.200289     0.058691  Biso 1.000000     C
    C   1.0     0.653615     0.200338     0.058752  Biso 1.000000     C
    C   1.0     0.221739     0.051150     0.146517  Biso 1.000000     C
    C   1.0     0.721154     0.050688     0.146267  Biso 1.000000     C
    C   1.0     0.111157     0.158617     0.017390  Biso 1.000000     C
    C   1.0     0.611116     0.158732     0.017504  Biso 1.000000     C
    C   1.0     0.257308     0.017845     0.032353  Biso 1.000000     C
    C   1.0     0.756067     0.017135     0.031940  Biso 1.000000     C
    C   1.0     0.316763     0.056824     0.048016  Biso 1.000000     C
    C   1.0     0.815638     0.056073     0.047219  Biso 1.000000     C
    C   1.0     0.210580     0.016235     0.086172  Biso 1.000000     C
    C   1.0     0.709620     0.015701     0.086019  Biso 1.000000     C
    C   1.0     0.214421     0.223647     0.033372  Biso 1.000000     C
    C   1.0     0.714424     0.223716     0.033307  Biso 1.000000     C
    C   1.0     0.129502     0.140626     0.951762  Biso 1.000000     C
    C   1.0     0.629291     0.140834     0.951808  Biso 1.000000     C
    C   1.0     0.326638     0.091039     0.108934  Biso 1.000000     C
    C   1.0     0.825878     0.090368     0.108036  Biso 1.000000     C
    C   1.0     0.190178     0.164412     0.926644  Biso 1.000000     C
    C   1.0     0.689904     0.164658     0.926559  Biso 1.000000     C
    C   1.0     0.232451     0.206067     0.967420  Biso 1.000000     C
    C   1.0     0.732286     0.206235     0.967281  Biso 1.000000     C
    C   1.0     0.134154     0.218647     0.129366  Biso 1.000000     C
    C   1.0     0.634334     0.218640     0.129483  Biso 1.000000     C
    C   1.0     0.153393     0.299735     0.441384  Biso 1.000000     C
    C   1.0     0.653985     0.299725     0.441196  Biso 1.000000     C
    C   1.0     0.219369     0.449965     0.354696  Biso 1.000000     C
    C   1.0     0.721239     0.449489     0.353612  Biso 1.000000     C
    C   1.0     0.110777     0.341165     0.482662  Biso 1.000000     C
    C   1.0     0.611683     0.341607     0.482445  Biso 1.000000     C
    C   1.0     0.255793     0.483103     0.468626  Biso 1.000000     C
    C   1.0     0.756138     0.482933     0.467981  Biso 1.000000     C
    C   1.0     0.315316     0.444558     0.452315  Biso 1.000000     C
    C   1.0     0.815664     0.443841     0.452756  Biso 1.000000     C
    C   1.0     0.208598     0.484682     0.415212  Biso 1.000000     C
    C   1.0     0.709725     0.484507     0.413850  Biso 1.000000     C
    C   1.0     0.214365     0.276721     0.466757  Biso 1.000000     C
    C   1.0     0.714738     0.276035     0.466619  Biso 1.000000     C
    C   1.0     0.128978     0.359198     0.548319  Biso 1.000000     C
    C   1.0     0.630001     0.359470     0.548104  Biso 1.000000     C
    C   1.0     0.324805     0.410557     0.391241  Biso 1.000000     C
    C   1.0     0.825887     0.409523     0.391947  Biso 1.000000     C
    C   1.0     0.189755     0.335731     0.573496  Biso 1.000000     C
    C   1.0     0.690551     0.335323     0.573333  Biso 1.000000     C
    C   1.0     0.232266     0.294360     0.532734  Biso 1.000000     C
    C   1.0     0.732744     0.293489     0.532609  Biso 1.000000     C
    C   1.0     0.134104     0.281303     0.370681  Biso 1.000000     C
    C   1.0     0.634572     0.281459     0.370490  Biso 1.000000     C
    C   1.0     0.404007     0.201932     0.441020  Biso 1.000000     C
    C   1.0     0.903664     0.200143     0.441192  Biso 1.000000     C
    C   1.0     0.470751     0.051229     0.354068  Biso 1.000000     C
    C   1.0     0.971182     0.050554     0.353654  Biso 1.000000     C
    C   1.0     0.361574     0.159981     0.482018  Biso 1.000000     C
    C   1.0     0.861241     0.158363     0.482334  Biso 1.000000     C
    C   1.0     0.006079     0.016998     0.467973  Biso 1.000000     C
    C   1.0     0.505944     0.017368     0.468223  Biso 1.000000     C
    C   1.0     0.065586     0.056092     0.452798  Biso 1.000000     C
    C   1.0     0.565540     0.056198     0.452878  Biso 1.000000     C
    C   1.0     0.459337     0.016145     0.414259  Biso 1.000000     C
    C   1.0     0.959684     0.015488     0.413841  Biso 1.000000     C
    C   1.0     0.464926     0.224936     0.466506  Biso 1.000000     C
    C   1.0     0.964420     0.223639     0.466717  Biso 1.000000     C
    C   1.0     0.379926     0.141395     0.547494  Biso 1.000000     C
    C   1.0     0.879431     0.140445     0.548010  Biso 1.000000     C
    C   1.0     0.075793     0.090464     0.392041  Biso 1.000000     C
    C   1.0     0.575668     0.090585     0.392110  Biso 1.000000     C
    C   1.0     0.440643     0.164870     0.572792  Biso 1.000000     C
    C   1.0     0.939977     0.164425     0.573354  Biso 1.000000     C
    C   1.0     0.482970     0.206754     0.532314  Biso 1.000000     C
    C   1.0     0.982292     0.206148     0.532728  Biso 1.000000     C
    C   1.0     0.384565     0.220937     0.370499  Biso 1.000000     C
    C   1.0     0.884356     0.218524     0.370494  Biso 1.000000     C
    C   1.0     0.403548     0.299719     0.058817  Biso 1.000000     C
    C   1.0     0.903684     0.299709     0.058781  Biso 1.000000     C
    C   1.0     0.471297     0.449673     0.146061  Biso 1.000000     C
    C   1.0     0.971121     0.449246     0.146660  Biso 1.000000     C
    C   1.0     0.361033     0.341465     0.017696  Biso 1.000000     C
    C   1.0     0.861200     0.341348     0.017539  Biso 1.000000     C
    C   1.0     0.006003     0.482851     0.032379  Biso 1.000000     C
    C   1.0     0.506118     0.482863     0.031655  Biso 1.000000     C
    C   1.0     0.065633     0.443987     0.047647  Biso 1.000000     C
    C   1.0     0.565609     0.443695     0.046865  Biso 1.000000     C
    C   1.0     0.459766     0.484617     0.085817  Biso 1.000000     C
    C   1.0     0.959569     0.484269     0.086452  Biso 1.000000     C
    C   1.0     0.464298     0.276230     0.033248  Biso 1.000000     C
    C   1.0     0.964527     0.276326     0.033370  Biso 1.000000     C
    C   1.0     0.379132     0.359386     0.952002  Biso 1.000000     C
    C   1.0     0.879430     0.359268     0.951881  Biso 1.000000     C
    C   1.0     0.075891     0.409651     0.108418  Biso 1.000000     C
    C   1.0     0.575851     0.409451     0.107685  Biso 1.000000     C
    C   1.0     0.439682     0.335445     0.926625  Biso 1.000000     C
    C   1.0     0.940078     0.335440     0.926665  Biso 1.000000     C
    C   1.0     0.482077     0.293723     0.967218  Biso 1.000000     C
    C   1.0     0.982442     0.293829     0.967381  Biso 1.000000     C
    C   1.0     0.384356     0.281442     0.129557  Biso 1.000000     C
    C   1.0     0.884359     0.281389     0.129475  Biso 1.000000     C
    C   1.0     0.347248     0.799680     0.941764  Biso 1.000000     C
    C   1.0     0.846402     0.799582     0.941305  Biso 1.000000     C
    C   1.0     0.281149     0.949697     0.854355  Biso 1.000000     C
    C   1.0     0.778835     0.949242     0.853712  Biso 1.000000     C
    C   1.0     0.389741     0.841490     0.982851  Biso 1.000000     C
    C   1.0     0.888900     0.841140     0.982595  Biso 1.000000     C
    C   1.0     0.245559     0.983394     0.968427  Biso 1.000000     C
    C   1.0     0.743932     0.982705     0.968064  Biso 1.000000     C
    C   1.0     0.186044     0.944523     0.952801  Biso 1.000000     C
    C   1.0     0.684377     0.943735     0.952784  Biso 1.000000     C
    C   1.0     0.292314     0.984794     0.914623  Biso 1.000000     C
    C   1.0     0.790368     0.984194     0.913975  Biso 1.000000     C
    C   1.0     0.286453     0.776379     0.967304  Biso 1.000000     C
    C   1.0     0.785586     0.776186     0.966720  Biso 1.000000     C
    C   1.0     0.371587     0.859623     0.048499  Biso 1.000000     C
    C   1.0     0.870705     0.858996     0.048294  Biso 1.000000     C
    C   1.0     0.176162     0.910138     0.891975  Biso 1.000000     C
    C   1.0     0.674138     0.909475     0.891950  Biso 1.000000     C
    C   1.0     0.310986     0.835881     0.073843  Biso 1.000000     C
    C   1.0     0.810082     0.835161     0.073510  Biso 1.000000     C
    C   1.0     0.268597     0.794132     0.033269  Biso 1.000000     C
    C   1.0     0.767705     0.793625     0.032749  Biso 1.000000     C
    C   1.0     0.366454     0.781123     0.871085  Biso 1.000000     C
    C   1.0     0.865695     0.781361     0.870563  Biso 1.000000     C
    C   1.0     0.346452     0.700322     0.558785  Biso 1.000000     C
    C   1.0     0.846347     0.700411     0.558691  Biso 1.000000     C
    C   1.0     0.280827     0.550379     0.646705  Biso 1.000000     C
    C   1.0     0.778882     0.550713     0.646245  Biso 1.000000     C
    C   1.0     0.388955     0.658925     0.517360  Biso 1.000000     C
    C   1.0     0.888827     0.658795     0.517416  Biso 1.000000     C
    C   1.0     0.244428     0.517150     0.532787  Biso 1.000000     C
    C   1.0     0.744006     0.517350     0.531851  Biso 1.000000     C
    C   1.0     0.184879     0.555659     0.549071  Biso 1.000000     C
    C   1.0     0.684451     0.556373     0.547108  Biso 1.000000     C
    C   1.0     0.291627     0.515641     0.586200  Biso 1.000000     C
    C   1.0     0.790427     0.515783     0.585974  Biso 1.000000     C
    C   1.0     0.285418     0.723371     0.533602  Biso 1.000000     C
    C   1.0     0.785550     0.723913     0.533243  Biso 1.000000     C
    C   1.0     0.370563     0.640931     0.451752  Biso 1.000000     C
    C   1.0     0.870640     0.641002     0.451703  Biso 1.000000     C
    C   1.0     0.175361     0.589683     0.610124  Biso 1.000000     C
    C   1.0     0.674197     0.590602     0.607953  Biso 1.000000     C
    C   1.0     0.309714     0.664416     0.426773  Biso 1.000000     C
    C   1.0     0.810039     0.664955     0.426450  Biso 1.000000     C
    C   1.0     0.267320     0.705776     0.467673  Biso 1.000000     C
    C   1.0     0.767676     0.706538     0.467198  Biso 1.000000     C
    C   1.0     0.365923     0.718696     0.629443  Biso 1.000000     C
    C   1.0     0.865636     0.718586     0.629453  Biso 1.000000     C
    N   1.0     0.471473     0.910952     0.657367  Biso 1.000000     N
    N   1.0     0.971631     0.910621     0.657131  Biso 1.000000     N
    N   1.0     0.471437     0.589020     0.842427  Biso 1.000000     N
    N   1.0     0.971345     0.588870     0.843091  Biso 1.000000     N
    N   1.0     0.279077     0.089473     0.157965  Biso 1.000000     N
    N   1.0     0.778593     0.088947     0.157342  Biso 1.000000     N
    N   1.0     0.276763     0.411934     0.342679  Biso 1.000000     N
    N   1.0     0.778626     0.411067     0.342597  Biso 1.000000     N
    N   1.0     0.028560     0.088907     0.342658  Biso 1.000000     N
    N   1.0     0.528242     0.089336     0.342916  Biso 1.000000     N
    N   1.0     0.028591     0.411036     0.157712  Biso 1.000000     N
    N   1.0     0.528640     0.411161     0.157063  Biso 1.000000     N
    N   1.0     0.223776     0.911414     0.842995  Biso 1.000000     N
    N   1.0     0.721408     0.910962     0.842630  Biso 1.000000     N
    N   1.0     0.223400     0.588362     0.658687  Biso 1.000000     N
    N   1.0     0.721453     0.589040     0.657308  Biso 1.000000     N
    O   1.0     0.461524     0.875165     0.716326  Biso 1.000000     O
    O   1.0     0.961786     0.874766     0.716068  Biso 1.000000     O
    O   1.0     0.072508     0.750409     0.669207  Biso 1.000000     O
    O   1.0     0.572687     0.753171     0.669060  Biso 1.000000     O
    O   1.0     0.174252     0.793261     0.649324  Biso 1.000000     O
    O   1.0     0.674816     0.793713     0.647418  Biso 1.000000     O
    O   1.0     0.461473     0.624828     0.783474  Biso 1.000000     O
    O   1.0     0.961440     0.624659     0.784122  Biso 1.000000     O
    O   1.0     0.072604     0.746972     0.831049  Biso 1.000000     O
    O   1.0     0.572713     0.746765     0.830936  Biso 1.000000     O
    O   1.0     0.174819     0.706542     0.852698  Biso 1.000000     O
    O   1.0     0.674888     0.706248     0.852570  Biso 1.000000     O
    O   1.0     0.288636     0.125233     0.217027  Biso 1.000000     O
    O   1.0     0.788552     0.124786     0.216303  Biso 1.000000     O
    O   1.0     0.177162     0.246960     0.169008  Biso 1.000000     O
    O   1.0     0.677404     0.246848     0.169114  Biso 1.000000     O
    O   1.0     0.075115     0.206210     0.147309  Biso 1.000000     O
    O   1.0     0.575269     0.206304     0.147415  Biso 1.000000     O
    O   1.0     0.285880     0.376191     0.283550  Biso 1.000000     O
    O   1.0     0.788553     0.375182     0.283653  Biso 1.000000     O
    O   1.0     0.177123     0.252937     0.331092  Biso 1.000000     O
    O   1.0     0.677524     0.253084     0.330825  Biso 1.000000     O
    O   1.0     0.075054     0.293750     0.352683  Biso 1.000000     O
    O   1.0     0.575483     0.293866     0.352625  Biso 1.000000     O
    O   1.0     0.038484     0.124792     0.283749  Biso 1.000000     O
    O   1.0     0.538095     0.125187     0.283979  Biso 1.000000     O
    O   1.0     0.427498     0.249553     0.330988  Biso 1.000000     O
    O   1.0     0.927383     0.246802     0.330894  Biso 1.000000     O
    O   1.0     0.325414     0.208931     0.352648  Biso 1.000000     O
    O   1.0     0.825270     0.206240     0.352568  Biso 1.000000     O
    O   1.0     0.038559     0.375130     0.216605  Biso 1.000000     O
    O   1.0     0.538556     0.375357     0.216028  Biso 1.000000     O
    O   1.0     0.427443     0.253129     0.169104  Biso 1.000000     O
    O   1.0     0.927403     0.253169     0.169130  Biso 1.000000     O
    O   1.0     0.325277     0.293751     0.147513  Biso 1.000000     O
    O   1.0     0.825262     0.293708     0.147356  Biso 1.000000     O
    O   1.0     0.214205     0.875369     0.784098  Biso 1.000000     O
    O   1.0     0.711452     0.875169     0.783643  Biso 1.000000     O
    O   1.0     0.323480     0.752234     0.831754  Biso 1.000000     O
    O   1.0     0.822654     0.753130     0.830909  Biso 1.000000     O
    O   1.0     0.425306     0.793963     0.852774  Biso 1.000000     O
    O   1.0     0.924770     0.793679     0.852664  Biso 1.000000     O
    O   1.0     0.214206     0.624140     0.717779  Biso 1.000000     O
    O   1.0     0.711482     0.624801     0.716309  Biso 1.000000     O
    O   1.0     0.322972     0.747049     0.669122  Biso 1.000000     O
    O   1.0     0.822589     0.746833     0.669093  Biso 1.000000     O
    O   1.0     0.424995     0.706229     0.647316  Biso 1.000000     O
    O   1.0     0.924695     0.706170     0.647392  Biso 1.000000     O
   La   1.0     0.483235     0.750011     0.749977  Biso 1.000000    La
   La   1.0     0.983033     0.749617     0.750115  Biso 1.000000    La
   La   1.0     0.266490     0.250697     0.249973  Biso 1.000000    La
   La   1.0     0.767002     0.250005     0.249952  Biso 1.000000    La
   La   1.0     0.016896     0.249906     0.250062  Biso 1.000000    La
   La   1.0     0.517029     0.250384     0.250014  Biso 1.000000    La
   La   1.0     0.234136     0.749778     0.750757  Biso 1.000000    La
   La   1.0     0.733144     0.749982     0.749993  Biso 1.000000    La
