#======================================================================

# CRYSTAL DATA

#----------------------------------------------------------------------

data_VESTA_phase_1


_pd_phase_name                         MOF
_cell_length_a                         18.36400
_cell_length_b                         18.56700
_cell_length_c                         18.57200
_cell_angle_alpha                      109.83600
_cell_angle_beta                       110.14900
_cell_angle_gamma                      110.16300
_symmetry_space_group_name_H-M         "P 1"
_symmetry_Int_Tables_number            1

loop_
_symmetry_equiv_pos_as_xyz
   "x, y, z"

loop_
   _atom_site_label
   _atom_site_occupancy
   _atom_site_fract_x
   _atom_site_fract_y
   _atom_site_fract_z
   _atom_site_adp_type
   _atom_site_B_iso_or_equiv
   _atom_site_type_symbol
    H   1.0     0.958682     0.250894     0.042566  Biso 1.000000     H
    H   1.0     0.716246     0.923076     0.461284  Biso 1.000000     H
    H   1.0     0.786062     0.246716     0.208350  Biso 1.000000     H
    H   1.0     0.538892     0.579044     0.287936  Biso 1.000000     H
    H   1.0     0.713877     0.791554     0.753208  Biso 1.000000     H
    H   1.0     0.783823     0.538787     0.077001  Biso 1.000000     H
    H   1.0     0.541319     0.957416     0.749139  Biso 1.000000     H
    H   1.0     0.961055     0.712112     0.420906  Biso 1.000000     H
    H   1.0     0.924269     0.962247     0.214187  Biso 1.000000     H
    H   1.0     0.249939     0.541537     0.458412  Biso 1.000000     H
    H   1.0     0.575683     0.785723     0.037781  Biso 1.000000     H
    H   1.0     0.250105     0.710222     0.289936  Biso 1.000000     H
    H   1.0     0.041318     0.749105     0.957409  Biso 1.000000     H
    H   1.0     0.283807     0.076929     0.538794  Biso 1.000000     H
    H   1.0     0.213901     0.753322     0.791588  Biso 1.000000     H
    H   1.0     0.461088     0.420958     0.712042  Biso 1.000000     H
    H   1.0     0.286125     0.208446     0.246810  Biso 1.000000     H
    H   1.0     0.216131     0.461221     0.922966  Biso 1.000000     H
    H   1.0     0.458665     0.042567     0.250858  Biso 1.000000     H
    H   1.0     0.038969     0.287913     0.579062  Biso 1.000000     H
    H   1.0     0.075734     0.037785     0.785836  Biso 1.000000     H
    H   1.0     0.750011     0.458425     0.541518  Biso 1.000000     H
    H   1.0     0.424319     0.214304     0.962231  Biso 1.000000     H
    H   1.0     0.749928     0.289825     0.710078  Biso 1.000000     H
    C   1.0     0.859486     0.169542     0.062829  Biso 1.000000     C
    C   1.0     0.614967     0.801597     0.440145  Biso 1.000000     C
    C   1.0     0.885216     0.328084     0.188033  Biso 1.000000     C
    C   1.0     0.640226     0.700509     0.309178  Biso 1.000000     C
    C   1.0     0.691079     0.888613     0.831574  Biso 1.000000     C
    C   1.0     0.807730     0.639953     0.198786  Biso 1.000000     C
    C   1.0     0.564338     0.860580     0.670778  Biso 1.000000     C
    C   1.0     0.936926     0.610673     0.299120  Biso 1.000000     C
    C   1.0     0.801007     0.939142     0.112718  Biso 1.000000     C
    C   1.0     0.168990     0.561691     0.359332  Biso 1.000000     C
    C   1.0     0.698946     0.809034     0.139468  Biso 1.000000     C
    C   1.0     0.331042     0.689866     0.388812  Biso 1.000000     C
    C   1.0     0.331008     0.640681     0.438348  Biso 1.000000     C
    C   1.0     0.698940     0.887182     0.060793  Biso 1.000000     C
    C   1.0     0.169047     0.611283     0.310203  Biso 1.000000     C
    C   1.0     0.801015     0.860552     0.190955  Biso 1.000000     C
    C   1.0     0.614757     0.811909     0.671909  Biso 1.000000     C
    C   1.0     0.859750     0.690865     0.299487  Biso 1.000000     C
    C   1.0     0.640473     0.937102     0.830422  Biso 1.000000     C
    C   1.0     0.885079     0.559931     0.198433  Biso 1.000000     C
    C   1.0     0.563091     0.700873     0.389404  Biso 1.000000     C
    C   1.0     0.935665     0.329249     0.139396  Biso 1.000000     C
    C   1.0     0.692271     0.801246     0.360089  Biso 1.000000     C
    C   1.0     0.808871     0.168360     0.111304  Biso 1.000000     C
    C   1.0     0.921998     0.249991     0.077729  Biso 1.000000     C
    C   1.0     0.678621     0.850037     0.424554  Biso 1.000000     C
    C   1.0     0.822682     0.247634     0.173125  Biso 1.000000     C
    C   1.0     0.576574     0.652085     0.324775  Biso 1.000000     C
    C   1.0     0.677270     0.826794     0.752314  Biso 1.000000     C
    C   1.0     0.821433     0.575521     0.150013  Biso 1.000000     C
    C   1.0     0.577992     0.922237     0.750020  Biso 1.000000     C
    C   1.0     0.923394     0.675271     0.347891  Biso 1.000000     C
    C   1.0     0.850264     0.924775     0.176743  Biso 1.000000     C
    C   1.0     0.249975     0.577347     0.422638  Biso 1.000000     C
    C   1.0     0.649688     0.823187     0.075223  Biso 1.000000     C
    C   1.0     0.250069     0.674413     0.325707  Biso 1.000000     C
    C   1.0     0.140508     0.830471     0.937148  Biso 1.000000     C
    C   1.0     0.385055     0.198401     0.559894  Biso 1.000000     C
    C   1.0     0.114758     0.671939     0.811906  Biso 1.000000     C
    C   1.0     0.359774     0.299501     0.690832  Biso 1.000000     C
    C   1.0     0.308919     0.111388     0.168437  Biso 1.000000     C
    C   1.0     0.192253     0.360064     0.801194  Biso 1.000000     C
    C   1.0     0.435650     0.139399     0.329228  Biso 1.000000     C
    C   1.0     0.063084     0.389357     0.700836  Biso 1.000000     C
    C   1.0     0.198994     0.060888     0.887302  Biso 1.000000     C
    C   1.0     0.830989     0.438306     0.640616  Biso 1.000000     C
    C   1.0     0.301054     0.190998     0.860550  Biso 1.000000     C
    C   1.0     0.668962     0.310144     0.611184  Biso 1.000000     C
    C   1.0     0.668971     0.359301     0.561619  Biso 1.000000     C
    C   1.0     0.301061     0.112843     0.939218  Biso 1.000000     C
    C   1.0     0.830956     0.388731     0.689761  Biso 1.000000     C
    C   1.0     0.198985     0.139479     0.809064  Biso 1.000000     C
    C   1.0     0.385233     0.188073     0.328099  Biso 1.000000     C
    C   1.0     0.140245     0.309149     0.700494  Biso 1.000000     C
    C   1.0     0.359524     0.062897     0.169582  Biso 1.000000     C
    C   1.0     0.114904     0.440087     0.801522  Biso 1.000000     C
    C   1.0     0.436915     0.299124     0.610610  Biso 1.000000     C
    C   1.0     0.064318     0.670764     0.860552  Biso 1.000000     C
    C   1.0     0.307746     0.198764     0.639944  Biso 1.000000     C
    C   1.0     0.191115     0.831664     0.888665  Biso 1.000000     C
    C   1.0     0.077996     0.750017     0.922238  Biso 1.000000     C
    C   1.0     0.321417     0.149967     0.575503  Biso 1.000000     C
    C   1.0     0.177289     0.752395     0.826820  Biso 1.000000     C
    C   1.0     0.423418     0.347917     0.675222  Biso 1.000000     C
    C   1.0     0.322728     0.173201     0.247699  Biso 1.000000     C
    C   1.0     0.178540     0.424495     0.849954  Biso 1.000000     C
    C   1.0     0.421997     0.077750     0.249981  Biso 1.000000     C
    C   1.0     0.076614     0.324748     0.652076  Biso 1.000000     C
    C   1.0     0.149739     0.075255     0.823276  Biso 1.000000     C
    C   1.0     0.749993     0.422631     0.577308  Biso 1.000000     C
    C   1.0     0.350314     0.176843     0.924794  Biso 1.000000     C
    C   1.0     0.749947     0.325614     0.674287  Biso 1.000000     C
    O   1.0     0.840539     0.091417     0.008084  Biso 1.000000     O
    O   1.0     0.595755     0.837947     0.497974  Biso 1.000000     O
    O   1.0     0.904383     0.406249     0.242976  Biso 1.000000     O
    O   1.0     0.659271     0.664134     0.251205  Biso 1.000000     O
    O   1.0     0.746722     0.908780     0.910552  Biso 1.000000     O
    O   1.0     0.750793     0.660861     0.162716  Biso 1.000000     O
    O   1.0     0.509107     0.840842     0.591854  Biso 1.000000     O
    O   1.0     0.993435     0.589344     0.335173  Biso 1.000000     O
    O   1.0     0.837714     0.996642     0.093030  Biso 1.000000     O
    O   1.0     0.089255     0.505114     0.338263  Biso 1.000000     O
    O   1.0     0.662233     0.752019     0.159630  Biso 1.000000     O
    O   1.0     0.410759     0.746009     0.409457  Biso 1.000000     O
    O   1.0     0.410710     0.661711     0.494907  Biso 1.000000     O
    O   1.0     0.662230     0.906817     0.003265  Biso 1.000000     O
    O   1.0     0.089364     0.590675     0.254075  Biso 1.000000     O
    O   1.0     0.837734     0.840439     0.247994  Biso 1.000000     O
    O   1.0     0.595587     0.756958     0.593762  Biso 1.000000     O
    O   1.0     0.840681     0.748828     0.335852  Biso 1.000000     O
    O   1.0     0.659393     0.991820     0.908527  Biso 1.000000     O
    O   1.0     0.904345     0.502139     0.162096  Biso 1.000000     O
    O   1.0     0.506575     0.664805     0.410732  Biso 1.000000     O
    O   1.0     0.990940     0.408216     0.159179  Biso 1.000000     O
    O   1.0     0.749179     0.837334     0.339149  Biso 1.000000     O
    O   1.0     0.753210     0.089341     0.091115  Biso 1.000000     O
    O   1.0     0.159466     0.908593     0.991915  Biso 1.000000     O
    O   1.0     0.404260     0.162042     0.502062  Biso 1.000000     O
    O   1.0     0.095589     0.593779     0.756950  Biso 1.000000     O
    O   1.0     0.340724     0.335882     0.748796  Biso 1.000000     O
    O   1.0     0.253283     0.091232     0.089463  Biso 1.000000     O
    O   1.0     0.249186     0.339157     0.837277  Biso 1.000000     O
    O   1.0     0.490875     0.159130     0.408151  Biso 1.000000     O
    O   1.0     0.006576     0.410683     0.664773  Biso 1.000000     O
    O   1.0     0.162288     0.003392     0.906995  Biso 1.000000     O
    O   1.0     0.910715     0.494874     0.661659  Biso 1.000000     O
    O   1.0     0.337765     0.248017     0.840392  Biso 1.000000     O
    O   1.0     0.589255     0.253997     0.590553  Biso 1.000000     O
    O   1.0     0.589260     0.338258     0.505067  Biso 1.000000     O
    O   1.0     0.337771     0.093213     0.996751  Biso 1.000000     O
    O   1.0     0.910646     0.409344     0.745877  Biso 1.000000     O
    O   1.0     0.162266     0.159589     0.752023  Biso 1.000000     O
    O   1.0     0.404391     0.243007     0.406247  Biso 1.000000     O
    O   1.0     0.159319     0.251186     0.664141  Biso 1.000000     O
    O   1.0     0.340608     0.008188     0.091475  Biso 1.000000     O
    O   1.0     0.095651     0.497896     0.837847  Biso 1.000000     O
    O   1.0     0.493420     0.335186     0.589269  Biso 1.000000     O
    O   1.0     0.009033     0.591792     0.840750  Biso 1.000000     O
    O   1.0     0.250835     0.162681     0.660884  Biso 1.000000     O
    O   1.0     0.246789     0.910689     0.908877  Biso 1.000000     O
   Co   1.0     0.749963    -0.002690     0.002579  Biso 1.000000    Co
   Co   1.0     0.505042     0.751476     0.499773  Biso 1.000000    Co
   Co   1.0    -0.004997     0.500302     0.248533  Biso 1.000000    Co
   Co   1.0     0.749981     0.750629     0.249397  Biso 1.000000    Co
   Co   1.0     0.250031     0.002695    -0.002567  Biso 1.000000    Co
   Co   1.0     0.494951     0.248504     0.500236  Biso 1.000000    Co
   Co   1.0     0.004991     0.499717     0.751402  Biso 1.000000    Co
   Co   1.0     0.250015     0.249392     0.750610  Biso 1.000000    Co
