#======================================================================

# CRYSTAL DATA

#----------------------------------------------------------------------

data_VESTA_phase_1


_pd_phase_name                         MOF
_cell_length_a                         23.83500
_cell_length_b                         17.03100
_cell_length_c                         15.99100
_cell_angle_alpha                      107.77800
_cell_angle_beta                       104.22800
_cell_angle_gamma                      99.91500
_symmetry_space_group_name_H-M         "P 1"
_symmetry_Int_Tables_number            1

loop_
_symmetry_equiv_pos_as_xyz
   "x, y, z"

loop_
   _atom_site_label
   _atom_site_occupancy
   _atom_site_fract_x
   _atom_site_fract_y
   _atom_site_fract_z
   _atom_site_adp_type
   _atom_site_B_iso_or_equiv
   _atom_site_type_symbol
    H   1.0     0.172434     0.416623     0.135600  Biso 1.000000     H
    H   1.0     0.671978     0.416403     0.136119  Biso 1.000000     H
    H   1.0     0.117781     0.660509     0.232455  Biso 1.000000     H
    H   1.0     0.617143     0.660293     0.233182  Biso 1.000000     H
    H   1.0     0.135174     0.525740     0.138501  Biso 1.000000     H
    H   1.0     0.634393     0.525477     0.138973  Biso 1.000000     H
    H   1.0     0.306654     0.333050     0.010262  Biso 1.000000     H
    H   1.0     0.805963     0.333241     0.009925  Biso 1.000000     H
    H   1.0     0.292331     0.435003     0.023815  Biso 1.000000     H
    H   1.0     0.791502     0.435131     0.023526  Biso 1.000000     H
    H   1.0     0.369597     0.521299     0.047351  Biso 1.000000     H
    H   1.0     0.869031     0.521295     0.046814  Biso 1.000000     H
    H   1.0     0.437717     0.668287     0.122970  Biso 1.000000     H
    H   1.0     0.937235     0.668251     0.122261  Biso 1.000000     H
    H   1.0     0.464461     0.647831     0.389744  Biso 1.000000     H
    H   1.0     0.963735     0.648288     0.389227  Biso 1.000000     H
    H   1.0     0.395588     0.499224     0.314975  Biso 1.000000     H
    H   1.0     0.894774     0.499763     0.314643  Biso 1.000000     H
    H   1.0     0.186115     0.329107     0.922307  Biso 1.000000     H
    H   1.0     0.685413     0.328945     0.922172  Biso 1.000000     H
    H   1.0     0.145921     0.271903     0.976496  Biso 1.000000     H
    H   1.0     0.645179     0.272085     0.976601  Biso 1.000000     H
    H   1.0     0.267044     0.122438     0.855434  Biso 1.000000     H
    H   1.0     0.766416     0.122512     0.855863  Biso 1.000000     H
    H   1.0     0.228222     0.022851     0.691202  Biso 1.000000     H
    H   1.0     0.727866     0.022944     0.691590  Biso 1.000000     H
    H   1.0     0.062709     0.098065     0.660863  Biso 1.000000     H
    H   1.0     0.562158     0.097658     0.660632  Biso 1.000000     H
    H   1.0     0.101295     0.198236     0.821644  Biso 1.000000     H
    H   1.0     0.600495     0.197866     0.821454  Biso 1.000000     H
    H   1.0     0.262991     0.250740     0.104615  Biso 1.000000     H
    H   1.0     0.762622     0.250764     0.104277  Biso 1.000000     H
    H   1.0     0.271542     0.344931     0.201362  Biso 1.000000     H
    H   1.0     0.771190     0.344854     0.201157  Biso 1.000000     H
    H   1.0     0.083916     0.182785     0.131001  Biso 1.000000     H
    H   1.0     0.583683     0.182798     0.131204  Biso 1.000000     H
    H   1.0     0.068643     0.083491     0.215868  Biso 1.000000     H
    H   1.0     0.568466     0.083550     0.216152  Biso 1.000000     H
    H   1.0     0.259527     0.133312     0.330449  Biso 1.000000     H
    H   1.0     0.759361     0.132918     0.330056  Biso 1.000000     H
    H   1.0     0.275751     0.231319     0.246306  Biso 1.000000     H
    H   1.0     0.775527     0.230871     0.245806  Biso 1.000000     H
    H   1.0     0.307072     0.779769     0.339995  Biso 1.000000     H
    H   1.0     0.806417     0.779736     0.339326  Biso 1.000000     H
    H   1.0     0.325934     0.645299     0.245325  Biso 1.000000     H
    H   1.0     0.825102     0.645275     0.244300  Biso 1.000000     H
    H   1.0     0.327995     0.583342     0.865094  Biso 1.000000     H
    H   1.0     0.827471     0.583401     0.864906  Biso 1.000000     H
    H   1.0     0.382664     0.339459     0.767675  Biso 1.000000     H
    H   1.0     0.882125     0.339519     0.767669  Biso 1.000000     H
    H   1.0     0.365437     0.474243     0.861981  Biso 1.000000     H
    H   1.0     0.864741     0.474317     0.861566  Biso 1.000000     H
    H   1.0     0.194030     0.666619     0.991233  Biso 1.000000     H
    H   1.0     0.693262     0.666714     0.990444  Biso 1.000000     H
    H   1.0     0.208373     0.564641     0.977451  Biso 1.000000     H
    H   1.0     0.707687     0.564817     0.976924  Biso 1.000000     H
    H   1.0     0.130833     0.478301     0.953960  Biso 1.000000     H
    H   1.0     0.630272     0.478679     0.953637  Biso 1.000000     H
    H   1.0     0.062651     0.331333     0.878206  Biso 1.000000     H
    H   1.0     0.562097     0.331711     0.878249  Biso 1.000000     H
    H   1.0     0.036238     0.351883     0.611512  Biso 1.000000     H
    H   1.0     0.535475     0.351624     0.611248  Biso 1.000000     H
    H   1.0     0.105139     0.500451     0.686420  Biso 1.000000     H
    H   1.0     0.604400     0.500187     0.685779  Biso 1.000000     H
    H   1.0     0.354760     0.727570     0.024239  Biso 1.000000     H
    H   1.0     0.854020     0.727881     0.024047  Biso 1.000000     H
    H   1.0     0.314433     0.671075     0.078861  Biso 1.000000     H
    H   1.0     0.813812     0.670773     0.078298  Biso 1.000000     H
    H   1.0     0.233494     0.877403     0.144762  Biso 1.000000     H
    H   1.0     0.732852     0.877274     0.145239  Biso 1.000000     H
    H   1.0     0.271924     0.976837     0.309108  Biso 1.000000     H
    H   1.0     0.771598     0.976730     0.309512  Biso 1.000000     H
    H   1.0     0.437607     0.902051     0.340319  Biso 1.000000     H
    H   1.0     0.937213     0.901781     0.339824  Biso 1.000000     H
    H   1.0     0.399396     0.801989     0.179459  Biso 1.000000     H
    H   1.0     0.898685     0.801696     0.179002  Biso 1.000000     H
    H   1.0     0.228697     0.654662     0.799682  Biso 1.000000     H
    H   1.0     0.728215     0.655039     0.799330  Biso 1.000000     H
    H   1.0     0.237222     0.748840     0.896426  Biso 1.000000     H
    H   1.0     0.736843     0.749187     0.896185  Biso 1.000000     H
    H   1.0     0.416141     0.816956     0.869548  Biso 1.000000     H
    H   1.0     0.915865     0.816965     0.869499  Biso 1.000000     H
    H   1.0     0.431222     0.916231     0.784591  Biso 1.000000     H
    H   1.0     0.931181     0.916287     0.784672  Biso 1.000000     H
    H   1.0     0.240298     0.866507     0.670695  Biso 1.000000     H
    H   1.0     0.740304     0.866925     0.670485  Biso 1.000000     H
    H   1.0     0.224263     0.768557     0.754987  Biso 1.000000     H
    H   1.0     0.724044     0.768871     0.754572  Biso 1.000000     H
    H   1.0     0.193377     0.220128     0.661319  Biso 1.000000     H
    H   1.0     0.692882     0.219899     0.661107  Biso 1.000000     H
    H   1.0     0.174704     0.354581     0.756408  Biso 1.000000     H
    H   1.0     0.674037     0.354402     0.755714  Biso 1.000000     H
    H   1.0     0.048759     0.081837     0.503197  Biso 1.000000     H
    H   1.0     0.548672     0.081974     0.503494  Biso 1.000000     H
    H   1.0     0.019186     0.168058     0.538544  Biso 1.000000     H
    H   1.0     0.519068     0.168172     0.538975  Biso 1.000000     H
    H   1.0     0.033576     0.089779     0.351060  Biso 1.000000     H
    H   1.0     0.533689     0.090334     0.351587  Biso 1.000000     H
    H   1.0     0.004662     0.181556     0.385865  Biso 1.000000     H
    H   1.0     0.504851     0.182163     0.386566  Biso 1.000000     H
    H   1.0     0.464383     0.079598     0.377547  Biso 1.000000     H
    H   1.0     0.964355     0.079053     0.377240  Biso 1.000000     H
    H   1.0     0.480768     0.831613     0.462134  Biso 1.000000     H
    H   1.0     0.980788     0.831818     0.461957  Biso 1.000000     H
    H   1.0     0.451065     0.917751     0.497425  Biso 1.000000     H
    H   1.0     0.951189     0.918004     0.497349  Biso 1.000000     H
    H   1.0     0.035501     0.920679     0.623372  Biso 1.000000     H
    H   1.0     0.535333     0.920330     0.623538  Biso 1.000000     H
    H   1.0    -0.004867     0.818134     0.614573  Biso 1.000000     H
    H   1.0     0.494902     0.817776     0.614599  Biso 1.000000     H
    H   1.0     0.465986     0.909555     0.649381  Biso 1.000000     H
    H   1.0     0.966217     0.909895     0.649359  Biso 1.000000     H
    H   1.0     0.415511     0.820040     0.487583  Biso 1.000000     H
    H   1.0     0.915630     0.820358     0.487656  Biso 1.000000     H
    H   1.0     0.084297     0.179426     0.512695  Biso 1.000000     H
    H   1.0     0.584281     0.179676     0.513397  Biso 1.000000     H
    C   1.0     0.234167     0.353839     0.067009  Biso 1.000000     C
    C   1.0     0.733538     0.353816     0.066896  Biso 1.000000     C
    C   1.0     0.208207     0.426159     0.105513  Biso 1.000000     C
    C   1.0     0.707513     0.425989     0.105595  Biso 1.000000     C
    C   1.0     0.211373     0.727553     0.293856  Biso 1.000000     C
    C   1.0     0.710749     0.727405     0.293920  Biso 1.000000     C
    C   1.0     0.163264     0.656014     0.235852  Biso 1.000000     C
    C   1.0     0.662588     0.655822     0.236225  Biso 1.000000     C
    C   1.0     0.173036     0.580711     0.183342  Biso 1.000000     C
    C   1.0     0.672270     0.580513     0.183570  Biso 1.000000     C
    C   1.0     0.199441     0.807581     0.350494  Biso 1.000000     C
    C   1.0     0.698896     0.807435     0.350665  Biso 1.000000     C
    C   1.0     0.295318     0.386507     0.055503  Biso 1.000000     C
    C   1.0     0.794601     0.386647     0.055213  Biso 1.000000     C
    C   1.0     0.377491     0.501567     0.177384  Biso 1.000000     C
    C   1.0     0.876817     0.501823     0.176953  Biso 1.000000     C
    C   1.0     0.389307     0.548657     0.122440  Biso 1.000000     C
    C   1.0     0.888694     0.548777     0.121910  Biso 1.000000     C
    C   1.0     0.427381     0.631316     0.164722  Biso 1.000000     C
    C   1.0     0.926820     0.631411     0.164096  Biso 1.000000     C
    C   1.0     0.453940     0.668551     0.261179  Biso 1.000000     C
    C   1.0     0.953352     0.668774     0.260554  Biso 1.000000     C
    C   1.0     0.442705     0.619812     0.315007  Biso 1.000000     C
    C   1.0     0.942014     0.620189     0.314485  Biso 1.000000     C
    C   1.0     0.405052     0.537338     0.273872  Biso 1.000000     C
    C   1.0     0.904308     0.537750     0.273453  Biso 1.000000     C
    C   1.0    -0.005356     0.756623     0.304620  Biso 1.000000     C
    C   1.0     0.495074     0.756507     0.305364  Biso 1.000000     C
    C   1.0     0.190358     0.294599     0.970635  Biso 1.000000     C
    C   1.0     0.689613     0.294548     0.970611  Biso 1.000000     C
    C   1.0     0.187843     0.168220     0.848241  Biso 1.000000     C
    C   1.0     0.687099     0.168040     0.848320  Biso 1.000000     C
    C   1.0     0.222358     0.116347     0.811592  Biso 1.000000     C
    C   1.0     0.721750     0.116304     0.811869  Biso 1.000000     C
    C   1.0     0.200473     0.060895     0.720092  Biso 1.000000     C
    C   1.0     0.700018     0.060858     0.720377  Biso 1.000000     C
    C   1.0     0.143297     0.055379     0.663488  Biso 1.000000     C
    C   1.0     0.642863     0.055229     0.663623  Biso 1.000000     C
    C   1.0     0.108066     0.104387     0.702482  Biso 1.000000     C
    C   1.0     0.607499     0.104106     0.702413  Biso 1.000000     C
    C   1.0     0.129841     0.161095     0.794102  Biso 1.000000     C
    C   1.0     0.629124     0.160819     0.794023  Biso 1.000000     C
    C   1.0     0.121739     0.000000     0.563903  Biso 1.000000     C
    C   1.0     0.621498     0.000000     0.564057  Biso 1.000000     C
    C   1.0     0.242441     0.302165     0.131556  Biso 1.000000     C
    C   1.0     0.742045     0.302104     0.131371  Biso 1.000000     C
    C   1.0     0.180393     0.213378     0.183385  Biso 1.000000     C
    C   1.0     0.680154     0.213178     0.183288  Biso 1.000000     C
    C   1.0     0.122011     0.171926     0.175632  Biso 1.000000     C
    C   1.0     0.621787     0.171842     0.175709  Biso 1.000000     C
    C   1.0     0.113785     0.117166     0.223046  Biso 1.000000     C
    C   1.0     0.613595     0.117125     0.223165  Biso 1.000000     C
    C   1.0     0.163256     0.102581     0.279313  Biso 1.000000     C
    C   1.0     0.663089     0.102453     0.279281  Biso 1.000000     C
    C   1.0     0.221227     0.144533     0.286705  Biso 1.000000     C
    C   1.0     0.721048     0.144232     0.286446  Biso 1.000000     C
    C   1.0     0.230226     0.199677     0.239394  Biso 1.000000     C
    C   1.0     0.730017     0.199343     0.239081  Biso 1.000000     C
    C   1.0     0.154678     0.041962     0.328611  Biso 1.000000     C
    C   1.0     0.654466     0.041934     0.328660  Biso 1.000000     C
    C   1.0     0.008946     0.121328     0.394653  Biso 1.000000     C
    C   1.0     0.509035     0.121835     0.395167  Biso 1.000000     C
    C   1.0     0.232002     0.577704     0.188308  Biso 1.000000     C
    C   1.0     0.731187     0.577590     0.188056  Biso 1.000000     C
    C   1.0     0.270000     0.723320     0.296593  Biso 1.000000     C
    C   1.0     0.769320     0.723250     0.296173  Biso 1.000000     C
    C   1.0     0.280594     0.649284     0.243707  Biso 1.000000     C
    C   1.0     0.779813     0.649221     0.243094  Biso 1.000000     C
    C   1.0     0.266353     0.645935     0.934059  Biso 1.000000     C
    C   1.0     0.765724     0.646031     0.933602  Biso 1.000000     C
    C   1.0     0.292390     0.573747     0.895486  Biso 1.000000     C
    C   1.0     0.791701     0.573767     0.894975  Biso 1.000000     C
    C   1.0     0.289049     0.272410     0.706845  Biso 1.000000     C
    C   1.0     0.788552     0.272299     0.706717  Biso 1.000000     C
    C   1.0     0.337221     0.343953     0.764608  Biso 1.000000     C
    C   1.0     0.836651     0.343943     0.764458  Biso 1.000000     C
    C   1.0     0.327549     0.419247     0.817310  Biso 1.000000     C
    C   1.0     0.826885     0.419267     0.816934  Biso 1.000000     C
    C   1.0     0.300891     0.192363     0.650134  Biso 1.000000     C
    C   1.0     0.800487     0.192287     0.650046  Biso 1.000000     C
    C   1.0     0.205302     0.613181     0.945839  Biso 1.000000     C
    C   1.0     0.704623     0.613282     0.945200  Biso 1.000000     C
    C   1.0     0.123056     0.498093     0.823988  Biso 1.000000     C
    C   1.0     0.622435     0.498128     0.823475  Biso 1.000000     C
    C   1.0     0.111185     0.450949     0.878859  Biso 1.000000     C
    C   1.0     0.610571     0.451200     0.878547  Biso 1.000000     C
    C   1.0     0.073074     0.368310     0.836500  Biso 1.000000     C
    C   1.0     0.572477     0.368546     0.836391  Biso 1.000000     C
    C   1.0     0.046577     0.331109     0.740025  Biso 1.000000     C
    C   1.0     0.545915     0.331180     0.739940  Biso 1.000000     C
    C   1.0     0.057923     0.379868     0.686265  Biso 1.000000     C
    C   1.0     0.557221     0.379749     0.685984  Biso 1.000000     C
    C   1.0     0.095605     0.462324     0.727477  Biso 1.000000     C
    C   1.0     0.594887     0.462212     0.726990  Biso 1.000000     C
    C   1.0     0.504707     0.243271     0.695868  Biso 1.000000     C
    C   1.0     0.000000     0.243248     0.695765  Biso 1.000000     C
    C   1.0     0.310305     0.705312     0.030267  Biso 1.000000     C
    C   1.0     0.809584     0.705262     0.029951  Biso 1.000000     C
    C   1.0     0.312814     0.831872     0.152423  Biso 1.000000     C
    C   1.0     0.812103     0.831610     0.152406  Biso 1.000000     C
    C   1.0     0.278128     0.883569     0.188825  Biso 1.000000     C
    C   1.0     0.777542     0.883386     0.189084  Biso 1.000000     C
    C   1.0     0.299788     0.938933     0.280356  Biso 1.000000     C
    C   1.0     0.799388     0.938773     0.280613  Biso 1.000000     C
    C   1.0     0.356901     0.944513     0.337195  Biso 1.000000     C
    C   1.0     0.856577     0.944336     0.337218  Biso 1.000000     C
    C   1.0     0.392295     0.895650     0.298472  Biso 1.000000     C
    C   1.0     0.891845     0.895415     0.298206  Biso 1.000000     C
    C   1.0     0.370740     0.839019     0.206831  Biso 1.000000     C
    C   1.0     0.870106     0.838760     0.206561  Biso 1.000000     C
    C   1.0     0.378207    -0.001453     0.436765  Biso 1.000000     C
    C   1.0     0.878129    -0.001536     0.436802  Biso 1.000000     C
    C   1.0     0.257825     0.697501     0.869443  Biso 1.000000     C
    C   1.0     0.757362     0.697762     0.869124  Biso 1.000000     C
    C   1.0     0.319661     0.786413     0.817492  Biso 1.000000     C
    C   1.0     0.819393     0.786592     0.817289  Biso 1.000000     C
    C   1.0     0.377999     0.827848     0.825052  Biso 1.000000     C
    C   1.0     0.877783     0.827928     0.824955  Biso 1.000000     C
    C   1.0     0.386114     0.882576     0.777580  Biso 1.000000     C
    C   1.0     0.886031     0.882706     0.777571  Biso 1.000000     C
    C   1.0     0.336571     0.897147     0.721459  Biso 1.000000     C
    C   1.0     0.836573     0.897420     0.721421  Biso 1.000000     C
    C   1.0     0.278645     0.855263     0.714311  Biso 1.000000     C
    C   1.0     0.778594     0.855601     0.714134  Biso 1.000000     C
    C   1.0     0.269752     0.800160     0.761702  Biso 1.000000     C
    C   1.0     0.769571     0.800427     0.761407  Biso 1.000000     C
    C   1.0     0.345064     0.957625     0.671992  Biso 1.000000     C
    C   1.0     0.845196     0.958027     0.672131  Biso 1.000000     C
    C   1.0     0.490690     0.878058     0.605894  Biso 1.000000     C
    C   1.0     0.990896     0.878388     0.605830  Biso 1.000000     C
    C   1.0     0.268630     0.422195     0.812774  Biso 1.000000     C
    C   1.0     0.767933     0.422195     0.812186  Biso 1.000000     C
    C   1.0     0.230477     0.276591     0.704534  Biso 1.000000     C
    C   1.0     0.729944     0.276433     0.704259  Biso 1.000000     C
    C   1.0     0.219992     0.350612     0.757641  Biso 1.000000     C
    C   1.0     0.719360     0.350491     0.757112  Biso 1.000000     C
    N   1.0     0.042173     0.139048     0.493286  Biso 1.000000     N
    N   1.0     0.542136     0.139283     0.493779  Biso 1.000000     N
    N   1.0     0.457637     0.860491     0.507230  Biso 1.000000     N
    N   1.0     0.957761     0.860756     0.507182  Biso 1.000000     N
    O   1.0     0.244461     0.864581     0.413985  Biso 1.000000     O
    O   1.0     0.743945     0.864407     0.414139  Biso 1.000000     O
    O   1.0     0.144955     0.809958     0.329051  Biso 1.000000     O
    O   1.0     0.644426     0.809848     0.329324  Biso 1.000000     O
    O   1.0     0.341399     0.420191     0.144368  Biso 1.000000     O
    O   1.0     0.840752     0.420437     0.144035  Biso 1.000000     O
    O   1.0     0.007654     0.796886     0.253824  Biso 1.000000     O
    O   1.0     0.507984     0.796897     0.254604  Biso 1.000000     O
    O   1.0     0.017519     0.789200     0.393771  Biso 1.000000     O
    O   1.0     0.517845     0.789096     0.394508  Biso 1.000000     O
    O   1.0     0.214618     0.223728     0.937704  Biso 1.000000     O
    O   1.0     0.713725     0.223509     0.937799  Biso 1.000000     O
    O   1.0     0.155394     0.958783     0.528904  Biso 1.000000     O
    O   1.0     0.655187     0.958642     0.529277  Biso 1.000000     O
    O   1.0     0.069363     0.996234     0.512902  Biso 1.000000     O
    O   1.0     0.569222     0.996274     0.512816  Biso 1.000000     O
    O   1.0     0.184038     0.265700     0.133586  Biso 1.000000     O
    O   1.0     0.683714     0.265519     0.133517  Biso 1.000000     O
    O   1.0     0.100680     0.000000     0.326735  Biso 1.000000     O
    O   1.0     0.600453     0.000000     0.326875  Biso 1.000000     O
    O   1.0     0.200322     0.021981     0.367300  Biso 1.000000     O
    O   1.0     0.700056     0.021838     0.367362  Biso 1.000000     O
    O   1.0     0.246797     0.506450     0.139052  Biso 1.000000     O
    O   1.0     0.745895     0.506355     0.138618  Biso 1.000000     O
    O   1.0     0.255846     0.135358     0.586701  Biso 1.000000     O
    O   1.0     0.755437     0.135203     0.586699  Biso 1.000000     O
    O   1.0     0.355371     0.189978     0.671523  Biso 1.000000     O
    O   1.0     0.855000     0.190025     0.671297  Biso 1.000000     O
    O   1.0     0.159067     0.579533     0.857099  Biso 1.000000     O
    O   1.0     0.658519     0.579499     0.856355  Biso 1.000000     O
    O   1.0     0.491695     0.203015     0.746668  Biso 1.000000     O
    O   1.0     0.992260     0.202885     0.746473  Biso 1.000000     O
    O   1.0     0.482020     0.210540     0.606698  Biso 1.000000     O
    O   1.0     0.982461     0.210791     0.606629  Biso 1.000000     O
    O   1.0     0.286296     0.776517     0.062863  Biso 1.000000     O
    O   1.0     0.785385     0.776201     0.062887  Biso 1.000000     O
    O   1.0     0.344506     0.041107     0.471474  Biso 1.000000     O
    O   1.0     0.844432     0.040828     0.471825  Biso 1.000000     O
    O   1.0     0.430462     0.003445     0.488073  Biso 1.000000     O
    O   1.0     0.930540     0.003615     0.487795  Biso 1.000000     O
    O   1.0     0.316155     0.734081     0.867283  Biso 1.000000     O
    O   1.0     0.815741     0.734219     0.867022  Biso 1.000000     O
    O   1.0     0.399061    -0.012725     0.673858  Biso 1.000000     O
    O   1.0     0.899179    -0.012580     0.673800  Biso 1.000000     O
    O   1.0     0.299351     0.977361     0.633099  Biso 1.000000     O
    O   1.0     0.799621     0.978298     0.633688  Biso 1.000000     O
    O   1.0     0.253928     0.493425     0.862234  Biso 1.000000     O
    O   1.0     0.753121     0.493472     0.861322  Biso 1.000000     O
   Cd   1.0     0.091056     0.900458     0.373450  Biso 1.000000    Cd
   Cd   1.0     0.590954     0.900820     0.373775  Biso 1.000000    Cd
   Cd   1.0     0.408791     0.098977     0.627054  Biso 1.000000    Cd
   Cd   1.0     0.908869     0.099382     0.627192  Biso 1.000000    Cd
   Cd   1.0     0.249994     0.999930     0.500280  Biso 1.000000    Cd
   Cd   1.0     0.749787     0.999841     0.500451  Biso 1.000000    Cd
