#======================================================================

# CRYSTAL DATA

#----------------------------------------------------------------------

data_VESTA_phase_1


_pd_phase_name                         MOF
_cell_length_a                         15.80900
_cell_length_b                         15.80600
_cell_length_c                         15.88900
_cell_angle_alpha                      105.13200
_cell_angle_beta                       105.24000
_cell_angle_gamma                      118.45300
_symmetry_space_group_name_H-M         "P 1"
_symmetry_Int_Tables_number            1

loop_
_symmetry_equiv_pos_as_xyz
   "x, y, z"

loop_
   _atom_site_label
   _atom_site_occupancy
   _atom_site_fract_x
   _atom_site_fract_y
   _atom_site_fract_z
   _atom_site_adp_type
   _atom_site_B_iso_or_equiv
   _atom_site_type_symbol
    H   1.0     0.729787     0.951198     0.681331  Biso 1.000000     H
    H   1.0     0.463531     0.736255     0.891137  Biso 1.000000     H
    H   1.0     0.675550     0.816533     0.468770  Biso 1.000000     H
    H   1.0     0.602935     0.643006     0.142023  Biso 1.000000     H
    H   1.0     0.426787     0.763879     0.036774  Biso 1.000000     H
    H   1.0     0.498611     0.716682     0.162744  Biso 1.000000     H
    H   1.0     0.612558     0.782366     0.723297  Biso 1.000000     H
    H   1.0     0.930800     0.280671     0.729079  Biso 1.000000     H
    H   1.0     0.820952     0.661138     0.645577  Biso 1.000000     H
    H   1.0     0.936826     0.793766     0.686932  Biso 1.000000     H
    H   1.0     0.839067     0.717139     0.562297  Biso 1.000000     H
    H   1.0     0.065460     0.053979     0.824359  Biso 1.000000     H
    H   1.0     0.100374     0.167199     0.925109  Biso 1.000000     H
    H   1.0    -0.027430     0.038852     0.872464  Biso 1.000000     H
    H   1.0     0.675845     0.814687     0.293481  Biso 1.000000     H
    H   1.0     0.845932     0.086162     0.573131  Biso 1.000000     H
    H   1.0     0.063093     0.032329     0.474633  Biso 1.000000     H
    H   1.0     0.061115     0.978521     0.560250  Biso 1.000000     H
    H   1.0     0.064712     0.096156     0.586540  Biso 1.000000     H
    H   1.0     0.970199     0.945293     0.660326  Biso 1.000000     H
    H   1.0     0.268670     0.047492     0.316283  Biso 1.000000     H
    H   1.0     0.843819     0.570724     0.108832  Biso 1.000000     H
    H   1.0     0.347713     0.206149     0.528680  Biso 1.000000     H
    H   1.0     0.500358     0.460235     0.856544  Biso 1.000000     H
    H   1.0     0.725379     0.388179     0.962325  Biso 1.000000     H
    H   1.0     0.552575     0.334556     0.835643  Biso 1.000000     H
    H   1.0     0.058403     0.888733     0.276500  Biso 1.000000     H
    H   1.0     0.552505     0.203049     0.270854  Biso 1.000000     H
    H   1.0     0.016050     0.175792     0.354657  Biso 1.000000     H
    H   1.0     0.106294     0.249536     0.312432  Biso 1.000000     H
    H   1.0     0.156033     0.277621     0.437171  Biso 1.000000     H
    H   1.0     0.229320     0.240545     0.173957  Biso 1.000000     H
    H   1.0     0.241902     0.174562     0.073548  Biso 1.000000     H
    H   1.0     0.165939     0.099267     0.125615  Biso 1.000000     H
    H   1.0     0.521273     0.382194     0.704739  Biso 1.000000     H
    H   1.0     0.513107     0.273267     0.426018  Biso 1.000000     H
    H   1.0     0.557359     0.589429     0.525503  Biso 1.000000     H
    H   1.0     0.417533     0.501286     0.439639  Biso 1.000000     H
    H   1.0     0.509107     0.479219     0.413221  Biso 1.000000     H
    H   1.0     0.284569     0.309529     0.338055  Biso 1.000000     H
    H   1.0     0.953063     0.268656     0.219621  Biso 1.000000     H
    H   1.0     0.428462     0.536576     0.271091  Biso 1.000000     H
    H   1.0     0.794213     0.323276     0.141350  Biso 1.000000     H
    H   1.0     0.542540     0.399589     0.040005  Biso 1.000000     H
    H   1.0     0.612147     0.574355     0.335474  Biso 1.000000     H
    H   1.0     0.667710     0.503977     0.217255  Biso 1.000000     H
    H   1.0     0.111409     0.385716     0.167252  Biso 1.000000     H
    H   1.0     0.795827     0.067746     0.348412  Biso 1.000000     H
    H   1.0     0.823036     0.175093     0.839549  Biso 1.000000     H
    H   1.0     0.749413     0.059942     0.857384  Biso 1.000000     H
    H   1.0     0.721653     0.157461     0.877672  Biso 1.000000     H
    H   1.0     0.762696     0.934433    -0.008726  Biso 1.000000     H
    H   1.0     0.828979     0.900509     0.070590  Biso 1.000000     H
    H   1.0     0.903762     0.000000     0.069988  Biso 1.000000     H
    H   1.0     0.618467     0.324015     0.140194  Biso 1.000000     H
    H   1.0     0.725362     0.152568     0.238102  Biso 1.000000     H
    H   1.0     0.410788     0.936863     0.968428  Biso 1.000000     H
    H   1.0     0.498132     0.939088     0.915988  Biso 1.000000     H
    H   1.0     0.521303     0.933935     0.028888  Biso 1.000000     H
    H   1.0     0.690168     0.027708     0.975661  Biso 1.000000     H
    H   1.0     0.049365     0.731508     0.779840  Biso 1.000000     H
    H   1.0     0.264385     0.155739     0.728364  Biso 1.000000     H
    H   1.0     0.181814     0.651293     0.858517  Biso 1.000000     H
    H   1.0     0.359103     0.501793     0.959649  Biso 1.000000     H
    H   1.0     0.237303     0.274751     0.664146  Biso 1.000000     H
    H   1.0     0.285323     0.448912     0.782453  Biso 1.000000     H
    H   1.0     0.218824     0.942637     0.832173  Biso 1.000000     H
    H   1.0     0.718571     0.447023     0.650952  Biso 1.000000     H
    H   1.0     0.337710     0.984165     0.159976  Biso 1.000000     H
    H   1.0     0.204380     0.894225     0.142445  Biso 1.000000     H
    H   1.0     0.280042     0.844135     0.122216  Biso 1.000000     H
    H   1.0     0.944632     0.771946     0.000000  Biso 1.000000     H
    H   1.0     0.831538     0.759352     0.929617  Biso 1.000000     H
    H   1.0     0.960171     0.834390     0.930577  Biso 1.000000     H
    H   1.0     0.182999     0.476349     0.859741  Biso 1.000000     H
    H   1.0     0.913539     0.486096     0.761256  Biso 1.000000     H
    H   1.0     0.968053     0.441799     0.030753  Biso 1.000000     H
    H   1.0     0.023552     0.582032     0.083542  Biso 1.000000     H
    H   1.0     0.904911     0.492107     0.970530  Biso 1.000000     H
    H   1.0     0.053273     0.714734     0.024075  Biso 1.000000     H
    B   1.0     0.892845     0.947600     0.632664  Biso 1.000000     B
    B   1.0     0.314540     0.259867     0.365684  Biso 1.000000     B
    B   1.0     0.740202     0.105643     0.054569  Biso 1.000000     B
    B   1.0     0.051667     0.685194     0.945116  Biso 1.000000     B
    C   1.0     0.594139     0.648559     0.006304  Biso 1.000000     C
    C   1.0     0.553695     0.675839     0.935372  Biso 1.000000     C
    C   1.0     0.732750     0.883768     0.679717  Biso 1.000000     C
    C   1.0     0.789442     0.779472     0.660474  Biso 1.000000     C
    C   1.0     0.494582     0.717806     0.948177  Biso 1.000000     C
    C   1.0     0.741761     0.854292     0.451307  Biso 1.000000     C
    C   1.0     0.574572     0.666397     0.088408  Biso 1.000000     C
    C   1.0     0.986014     0.126382     0.788092  Biso 1.000000     C
    C   1.0     0.475056     0.733671     0.029327  Biso 1.000000     C
    C   1.0     0.570351     0.663621     0.844867  Biso 1.000000     C
    C   1.0     0.516022     0.708103     0.100219  Biso 1.000000     C
    C   1.0     0.675923     0.801779     0.700726  Biso 1.000000     C
    C   1.0     0.849612     0.735280     0.637502  Biso 1.000000     C
    C   1.0     0.033739     0.094979     0.856563  Biso 1.000000     C
    C   1.0     0.742522     0.853954     0.365276  Biso 1.000000     C
    C   1.0     0.935842     0.214462     0.728324  Biso 1.000000     C
    C   1.0     0.894156     0.119115     0.650992  Biso 1.000000     C
    C   1.0     0.911627     0.949771     0.476282  Biso 1.000000     C
    C   1.0     0.031638     0.018044     0.526946  Biso 1.000000     C
    C   1.0     0.641756     0.587043     0.993017  Biso 1.000000     C
    C   1.0     0.739871     0.617333     0.064245  Biso 1.000000     C
    C   1.0     0.203190     0.052338     0.318578  Biso 1.000000     C
    C   1.0     0.118841     0.128843     0.338837  Biso 1.000000     C
    C   1.0     0.768488     0.544962     0.051487  Biso 1.000000     C
    C   1.0     0.402894     0.290166     0.546709  Biso 1.000000     C
    C   1.0     0.577291     0.485318     0.910417  Biso 1.000000     C
    C   1.0     0.338228     0.197731     0.210705  Biso 1.000000     C
    C   1.0     0.703015     0.444224     0.969821  Biso 1.000000     C
    C   1.0     0.818226     0.724524     0.155308  Biso 1.000000     C
    C   1.0     0.606718     0.414552     0.898586  Biso 1.000000     C
    C   1.0     0.100456     0.974744     0.298707  Biso 1.000000     C
    C   1.0     0.098052     0.212331     0.362116  Biso 1.000000     C
    C   1.0     0.238158     0.176568     0.141877  Biso 1.000000     C
    C   1.0     0.488642     0.377182     0.633121  Biso 1.000000     C
    C   1.0     0.486677     0.208313     0.271190  Biso 1.000000     C
    C   1.0     0.468234     0.243511     0.348141  Biso 1.000000     C
    C   1.0     0.473289     0.435726     0.522863  Biso 1.000000     C
    C   1.0     0.490665     0.505416     0.472818  Biso 1.000000     C
    C   1.0     0.414411     0.407394     0.054078  Biso 1.000000     C
    C   1.0     0.383110     0.446958     0.121281  Biso 1.000000     C
    C   1.0     0.947865     0.265388     0.149383  Biso 1.000000     C
    C   1.0     0.870694     0.207957     0.989064  Biso 1.000000     C
    C   1.0     0.455046     0.506109     0.221915  Biso 1.000000     C
    C   1.0     0.710208     0.257362     0.112747  Biso 1.000000     C
    C   1.0     0.516765     0.427431     0.091421  Biso 1.000000     C
    C   1.0     0.803622     0.013728     0.141677  Biso 1.000000     C
    C   1.0     0.556432     0.526167     0.257338  Biso 1.000000     C
    C   1.0     0.275035     0.429346     0.091944  Biso 1.000000     C
    C   1.0     0.587169     0.486017     0.191256  Biso 1.000000     C
    C   1.0     0.025301     0.322121     0.123845  Biso 1.000000     C
    C   1.0     0.786807     0.147051     0.885304  Biso 1.000000     C
    C   1.0     0.826319     0.966677     0.064208  Biso 1.000000     C
    C   1.0     0.623344     0.257105     0.112147  Biso 1.000000     C
    C   1.0     0.791228     0.063027     0.277882  Biso 1.000000     C
    C   1.0     0.755858     0.104674     0.223851  Biso 1.000000     C
    C   1.0     0.564537     0.087852     0.037587  Biso 1.000000     C
    C   1.0     0.494674     0.967938     0.985026  Biso 1.000000     C
    C   1.0     0.352980     0.359564     0.945450  Biso 1.000000     C
    C   1.0     0.325279     0.260868     0.878190  Biso 1.000000     C
    C   1.0     0.116511     0.797120     0.850129  Biso 1.000000     C
    C   1.0     0.219875     0.881550     0.010554  Biso 1.000000     C
    C   1.0     0.283204     0.231676     0.777580  Biso 1.000000     C
    C   1.0     0.144390     0.596067     0.887035  Biso 1.000000     C
    C   1.0     0.335481     0.424439     0.908202  Biso 1.000000     C
    C   1.0     0.872719     0.662055     0.858248  Biso 1.000000     C
    C   1.0     0.267645     0.297517     0.742259  Biso 1.000000     C
    C   1.0     0.337145     0.182233     0.907461  Biso 1.000000     C
    C   1.0     0.293675     0.394542     0.808393  Biso 1.000000     C
    C   1.0     0.198801     0.900274     0.875632  Biso 1.000000     C
    C   1.0     0.263069     0.902270     0.114413  Biso 1.000000     C
    C   1.0     0.903911     0.762684     0.936008  Biso 1.000000     C
    C   1.0     0.144429     0.509665     0.887700  Biso 1.000000     C
    C   1.0     0.784770     0.513012     0.721647  Biso 1.000000     C
    C   1.0     0.880356     0.531281     0.775664  Biso 1.000000     C
    C   1.0     0.050087     0.526149     0.961985  Biso 1.000000     C
    C   1.0     0.982832     0.509228     0.014378  Biso 1.000000     C
    N   1.0     0.804653     0.869717     0.654492  Biso 1.000000     N
    N   1.0    -0.007230     0.218398     0.813836  Biso 1.000000     N
    N   1.0     0.711855     0.736654     0.688517  Biso 1.000000     N
    N   1.0     0.926193     0.063720     0.689064  Biso 1.000000     N
    N   1.0     0.848828     0.914921     0.521386  Biso 1.000000     N
    N   1.0     0.849034     0.914213     0.381359  Biso 1.000000     N
    N   1.0     0.214630     0.149680     0.343713  Biso 1.000000     N
    N   1.0     0.404995     0.179359     0.185459  Biso 1.000000     N
    N   1.0     0.047975     0.023215     0.311568  Biso 1.000000     N
    N   1.0     0.374381     0.236852     0.309629  Biso 1.000000     N
    N   1.0     0.393334     0.327421     0.477099  Biso 1.000000     N
    N   1.0     0.532752     0.468035     0.617756  Biso 1.000000     N
    N   1.0     0.850227     0.193131     0.064120  Biso 1.000000     N
    N   1.0     0.821436     0.000000     0.226421  Biso 1.000000     N
    N   1.0     0.976380     0.285789     0.023233  Biso 1.000000     N
    N   1.0     0.763685     0.073216     0.137734  Biso 1.000000     N
    N   1.0     0.672771     0.150208     0.065458  Biso 1.000000     N
    N   1.0     0.532417     0.150804     0.065393  Biso 1.000000     N
    N   1.0     0.129801     0.785429     0.935481  Biso 1.000000     N
    N   1.0     0.780606     0.595176     0.773377  Biso 1.000000     N
    N   1.0     0.263361     0.952786     0.976314  Biso 1.000000     N
    N   1.0     0.935662     0.625496     0.862042  Biso 1.000000     N
    N   1.0     0.084730     0.606375     0.934136  Biso 1.000000     N
    N   1.0     0.084930     0.465888     0.934332  Biso 1.000000     N
    O   1.0     0.651300     0.658686     0.849122  Biso 1.000000     O
    O   1.0     0.510074     0.660410     0.773343  Biso 1.000000     O
    O   1.0     0.809895     0.801657     0.150951  Biso 1.000000     O
    O   1.0     0.885885     0.735467     0.227169  Biso 1.000000     O
    O   1.0     0.198624     0.347797     0.006649  Biso 1.000000     O
    O   1.0     0.262733     0.489250     0.148137  Biso 1.000000     O
    O   1.0     0.341319     0.191521     0.992720  Biso 1.000000     O
    O   1.0     0.340776     0.113604     0.851327  Biso 1.000000     O
   Zn   1.0     0.661175     0.615249     0.726938  Biso 1.000000    Zn
   Zn   1.0     0.887868     0.933922     0.273164  Biso 1.000000    Zn
   Zn   1.0     0.065472     0.337202     0.952918  Biso 1.000000    Zn
   Zn   1.0     0.385051     0.112782     0.046738  Biso 1.000000    Zn
