#======================================================================

# CRYSTAL DATA

#----------------------------------------------------------------------

data_VESTA_phase_1


_pd_phase_name                         MOF
_cell_length_a                         13.56300
_cell_length_b                         13.89400
_cell_length_c                         16.09000
_cell_angle_alpha                      87.88400
_cell_angle_beta                       82.86800
_cell_angle_gamma                      91.85300
_symmetry_space_group_name_H-M         "P 1"
_symmetry_Int_Tables_number            1

loop_
_symmetry_equiv_pos_as_xyz
   "x, y, z"

loop_
   _atom_site_label
   _atom_site_occupancy
   _atom_site_fract_x
   _atom_site_fract_y
   _atom_site_fract_z
   _atom_site_adp_type
   _atom_site_B_iso_or_equiv
   _atom_site_type_symbol
    H   1.0     0.729624     0.696942     0.697218  Biso 1.000000     H
    H   1.0     0.908051     0.760768     0.678483  Biso 1.000000     H
    H   1.0     0.977087     0.546268     0.857566  Biso 1.000000     H
    H   1.0     0.725056     0.527042     0.987521  Biso 1.000000     H
    H   1.0     0.737364     0.221827     0.033813  Biso 1.000000     H
    H   1.0     0.829775     0.206225     0.890914  Biso 1.000000     H
    H   1.0     0.531744     0.719741     0.477941  Biso 1.000000     H
    H   1.0     0.202587     0.840460     0.427669  Biso 1.000000     H
    H   1.0     0.220273     0.744888     0.559039  Biso 1.000000     H
    H   1.0     0.352428     0.002794     0.416222  Biso 1.000000     H
    H   1.0     0.410732     0.093454     0.342602  Biso 1.000000     H
    H   1.0     0.278484     0.086670     0.367227  Biso 1.000000     H
    H   1.0     0.265025     0.072236     0.213107  Biso 1.000000     H
    H   1.0     0.397124     0.073443     0.188868  Biso 1.000000     H
    H   1.0     0.323586    -0.027262     0.161321  Biso 1.000000     H
    H   1.0     0.717277     0.727950     0.192559  Biso 1.000000     H
    H   1.0     0.769176     0.903744     0.166050  Biso 1.000000     H
    H   1.0     0.536890     0.978265     0.354537  Biso 1.000000     H
    H   1.0    -0.032323     0.339469     0.624960  Biso 1.000000     H
    H   1.0     0.072525     0.409533     0.650518  Biso 1.000000     H
    H   1.0     0.071296     0.281322     0.661943  Biso 1.000000     H
    H   1.0     0.092961     0.297687     0.815434  Biso 1.000000     H
    H   1.0     0.092692     0.425719     0.802108  Biso 1.000000     H
    H   1.0     0.003646     0.363904     0.878976  Biso 1.000000     H
    H   1.0     0.270274     0.303413     0.299564  Biso 1.000000     H
    H   1.0     0.091867     0.239536     0.318278  Biso 1.000000     H
    H   1.0     0.022837     0.453862     0.139038  Biso 1.000000     H
    H   1.0     0.274775     0.472992     0.009084  Biso 1.000000     H
    H   1.0     0.262690     0.778207     0.962653  Biso 1.000000     H
    H   1.0     0.170380     0.793954     0.105566  Biso 1.000000     H
    H   1.0     0.468170     0.280125     0.518473  Biso 1.000000     H
    H   1.0     0.797468     0.159960     0.568999  Biso 1.000000     H
    H   1.0     0.779732     0.255359     0.437541  Biso 1.000000     H
    H   1.0     0.647602     0.997412     0.580542  Biso 1.000000     H
    H   1.0     0.589201     0.906865     0.654226  Biso 1.000000     H
    H   1.0     0.721457     0.913579     0.629684  Biso 1.000000     H
    H   1.0     0.734796     0.928225     0.783798  Biso 1.000000     H
    H   1.0     0.602689     0.927073     0.807937  Biso 1.000000     H
    H   1.0     0.676221     0.000000     0.835448  Biso 1.000000     H
    H   1.0     0.282813     0.272103     0.804046  Biso 1.000000     H
    H   1.0     0.230892     0.096309     0.830550  Biso 1.000000     H
    H   1.0     0.463054     0.021777     0.641958  Biso 1.000000     H
    H   1.0     0.000000     0.661226     0.371628  Biso 1.000000     H
    H   1.0     0.927657     0.591200     0.346247  Biso 1.000000     H
    H   1.0     0.929030     0.719402     0.334621  Biso 1.000000     H
    H   1.0     0.907243     0.702881     0.181206  Biso 1.000000     H
    H   1.0     0.907269     0.574851     0.194685  Biso 1.000000     H
    H   1.0     0.996367     0.636416     0.117704  Biso 1.000000     H
    C   1.0     0.648579     0.548034     0.789662  Biso 1.000000     C
    C   1.0     0.755256     0.583102     0.784248  Biso 1.000000     C
    C   1.0     0.785490     0.663979     0.731049  Biso 1.000000     C
    C   1.0     0.883332     0.699489     0.721028  Biso 1.000000     C
    C   1.0     0.952554     0.656566     0.767025  Biso 1.000000     C
    C   1.0     0.922575     0.576934     0.820966  Biso 1.000000     C
    C   1.0     0.825326     0.537841     0.829101  Biso 1.000000     C
    C   1.0     0.057994     0.695266     0.759245  Biso 1.000000     C
    C   1.0     0.800636     0.450451     0.885438  Biso 1.000000     C
    C   1.0     0.749520     0.457413     0.965708  Biso 1.000000     C
    C   1.0     0.726697     0.375887     0.019060  Biso 1.000000     C
    C   1.0     0.755619     0.285123    -0.007930  Biso 1.000000     C
    C   1.0     0.807320     0.276733     0.912369  Biso 1.000000     C
    C   1.0     0.830553     0.358904     0.859188  Biso 1.000000     C
    C   1.0     0.670392     0.387068     0.104398  Biso 1.000000     C
    C   1.0     0.877526     0.348665     0.770858  Biso 1.000000     C
    C   1.0     0.390871     0.666842     0.602736  Biso 1.000000     C
    C   1.0     0.377657     0.726864     0.525782  Biso 1.000000     C
    C   1.0     0.460393     0.747639     0.466206  Biso 1.000000     C
    C   1.0     0.452542     0.802099     0.392821  Biso 1.000000     C
    C   1.0     0.358393     0.835799     0.379427  Biso 1.000000     C
    C   1.0     0.275105     0.815028     0.439188  Biso 1.000000     C
    C   1.0     0.284587     0.761027     0.512323  Biso 1.000000     C
    C   1.0     0.347045     0.883430     0.296337  Biso 1.000000     C
    C   1.0     0.345522     0.043977     0.358155  Biso 1.000000     C
    C   1.0     0.330327     0.027050     0.207876  Biso 1.000000     C
    C   1.0     0.567191     0.650205     0.294254  Biso 1.000000     C
    C   1.0     0.595094     0.755595     0.285247  Biso 1.000000     C
    C   1.0     0.677681     0.784037     0.226939  Biso 1.000000     C
    C   1.0     0.706513     0.880701     0.212335  Biso 1.000000     C
    C   1.0     0.654944     0.950831     0.258621  Biso 1.000000     C
    C   1.0     0.573619     0.922702     0.317498  Biso 1.000000     C
    C   1.0     0.541213     0.826093     0.330550  Biso 1.000000     C
    C   1.0     0.687412     0.055235     0.247246  Biso 1.000000     C
    C   1.0     0.024681     0.344605     0.667129  Biso 1.000000     C
    C   1.0     0.045167     0.360149     0.816539  Biso 1.000000     C
    C   1.0     0.351363     0.452159     0.206899  Biso 1.000000     C
    C   1.0     0.244652     0.417157     0.212434  Biso 1.000000     C
    C   1.0     0.214420     0.336319     0.265682  Biso 1.000000     C
    C   1.0     0.116584     0.300793     0.275706  Biso 1.000000     C
    C   1.0     0.047384     0.343609     0.229618  Biso 1.000000     C
    C   1.0     0.077342     0.423248     0.175675  Biso 1.000000     C
    C   1.0     0.174592     0.462345     0.167524  Biso 1.000000     C
    C   1.0     0.941983     0.304805     0.237334  Biso 1.000000     C
    C   1.0     0.199304     0.549701     0.111148  Biso 1.000000     C
    C   1.0     0.250379     0.542656     0.030868  Biso 1.000000     C
    C   1.0     0.273246     0.624140     0.977471  Biso 1.000000     C
    C   1.0     0.244413     0.714943     0.000000  Biso 1.000000     C
    C   1.0     0.192764     0.723416     0.084137  Biso 1.000000     C
    C   1.0     0.169502     0.641291     0.137368  Biso 1.000000     C
    C   1.0     0.329537     0.612910     0.892132  Biso 1.000000     C
    C   1.0     0.122623     0.651662     0.225710  Biso 1.000000     C
    C   1.0     0.609095     0.333159     0.393741  Biso 1.000000     C
    C   1.0     0.622303     0.273174     0.470713  Biso 1.000000     C
    C   1.0     0.539550     0.252339     0.530258  Biso 1.000000     C
    C   1.0     0.547429     0.197963     0.603679  Biso 1.000000     C
    C   1.0     0.641619     0.164439     0.617146  Biso 1.000000     C
    C   1.0     0.724923     0.185263     0.557417  Biso 1.000000     C
    C   1.0     0.715413     0.239174     0.484242  Biso 1.000000     C
    C   1.0     0.652966     0.116956     0.700289  Biso 1.000000     C
    C   1.0     0.654437     0.956308     0.638663  Biso 1.000000     C
    C   1.0     0.669511     0.973436     0.788937  Biso 1.000000     C
    C   1.0     0.432834     0.349826     0.702263  Biso 1.000000     C
    C   1.0     0.404934     0.244443     0.711300  Biso 1.000000     C
    C   1.0     0.322373     0.216013     0.769639  Biso 1.000000     C
    C   1.0     0.293532     0.119355     0.784244  Biso 1.000000     C
    C   1.0     0.345055     0.049228     0.737919  Biso 1.000000     C
    C   1.0     0.426358     0.077344     0.679014  Biso 1.000000     C
    C   1.0     0.458770     0.173949     0.665959  Biso 1.000000     C
    C   1.0     0.312556     0.944839     0.749309  Biso 1.000000     C
    C   1.0     0.975565     0.656060     0.329507  Biso 1.000000     C
    C   1.0     0.954912     0.640328     0.180150  Biso 1.000000     C
    N   1.0    -0.023059     0.349948     0.753458  Biso 1.000000     N
    N   1.0     0.338105    -0.020775     0.289313  Biso 1.000000     N
    N   1.0     0.000000     0.650506     0.243172  Biso 1.000000     N
    N   1.0     0.661824     0.000000     0.707443  Biso 1.000000     N
    O   1.0     0.822370     0.338823     0.712771  Biso 1.000000     O
    O   1.0     0.623860     0.461082     0.816150  Biso 1.000000     O
    O   1.0     0.587754     0.608184     0.767720  Biso 1.000000     O
    O   1.0     0.645989     0.113899     0.299134  Biso 1.000000     O
    O   1.0     0.755057     0.080940     0.187958  Biso 1.000000     O
    O   1.0     0.475527     0.633005     0.608363  Biso 1.000000     O
    O   1.0     0.316474     0.650045     0.659660  Biso 1.000000     O
    O   1.0     0.646261     0.471442     0.124655  Biso 1.000000     O
    O   1.0     0.647315     0.312195     0.152568  Biso 1.000000     O
    O   1.0     0.088144     0.758195     0.701685  Biso 1.000000     O
    O   1.0     0.113082     0.662460     0.812250  Biso 1.000000     O
    O   1.0     0.475088     0.621073     0.309130  Biso 1.000000     O
    O   1.0     0.636642     0.591778     0.285026  Biso 1.000000     O
    O   1.0     0.345919     0.831668     0.232559  Biso 1.000000     O
    O   1.0     0.177850     0.661550     0.283742  Biso 1.000000     O
    O   1.0     0.376115     0.539111     0.180433  Biso 1.000000     O
    O   1.0     0.412172     0.391928     0.228748  Biso 1.000000     O
    O   1.0     0.353999     0.886146     0.697451  Biso 1.000000     O
    O   1.0     0.244865     0.919182     0.808567  Biso 1.000000     O
    O   1.0     0.524430     0.366968     0.388089  Biso 1.000000     O
    O   1.0     0.683506     0.349959     0.336835  Biso 1.000000     O
    O   1.0     0.353682     0.528537     0.871891  Biso 1.000000     O
    O   1.0     0.352598     0.687769     0.843936  Biso 1.000000     O
    O   1.0     0.911854     0.241828     0.294859  Biso 1.000000     O
    O   1.0     0.886922     0.337539     0.184276  Biso 1.000000     O
    O   1.0     0.524927     0.378962     0.687353  Biso 1.000000     O
    O   1.0     0.363366     0.408237     0.711504  Biso 1.000000     O
    O   1.0     0.654145     0.168864     0.763975  Biso 1.000000     O
   Cd   1.0     0.436121     0.554741     0.739497  Biso 1.000000    Cd
   Cd   1.0     0.751151     0.241286     0.239453  Biso 1.000000    Cd
   Cd   1.0     0.654844     0.330868     0.745634  Biso 1.000000    Cd
   Cd   1.0     0.563804     0.445290     0.257011  Biso 1.000000    Cd
   Cd   1.0     0.248844     0.758760     0.757044  Biso 1.000000    Cd
   Cd   1.0     0.345337     0.669533     0.250805  Biso 1.000000    Cd
