#======================================================================

# CRYSTAL DATA

#----------------------------------------------------------------------

data_VESTA_phase_1


_pd_phase_name                         MOF
_cell_length_a                         9.92000
_cell_length_b                         24.56800
_cell_length_c                         21.99900
_cell_angle_alpha                      90.14400
_cell_angle_beta                       89.98400
_cell_angle_gamma                      89.98700
_symmetry_space_group_name_H-M         "P 1"
_symmetry_Int_Tables_number            1

loop_
_symmetry_equiv_pos_as_xyz
   "x, y, z"

loop_
   _atom_site_label
   _atom_site_occupancy
   _atom_site_fract_x
   _atom_site_fract_y
   _atom_site_fract_z
   _atom_site_adp_type
   _atom_site_B_iso_or_equiv
   _atom_site_type_symbol
    H   1.0     0.190726     0.350421     0.824771  Biso 1.000000     H
    H   1.0     0.690706     0.350422     0.824772  Biso 1.000000     H
    H   1.0     0.055510     0.393619     0.804307  Biso 1.000000     H
    H   1.0     0.555493     0.393621     0.804307  Biso 1.000000     H
    H   1.0     0.332965     0.437696     0.843625  Biso 1.000000     H
    H   1.0     0.832949     0.437696     0.843625  Biso 1.000000     H
    H   1.0     0.180675     0.474987     0.836296  Biso 1.000000     H
    H   1.0     0.680660     0.474988     0.836297  Biso 1.000000     H
    H   1.0     0.325534     0.348027     0.082147  Biso 1.000000     H
    H   1.0     0.825520     0.348027     0.082147  Biso 1.000000     H
    H   1.0     0.406731     0.328848     0.013154  Biso 1.000000     H
    H   1.0     0.906715     0.328848     0.013155  Biso 1.000000     H
    H   1.0     0.223797     0.263050     0.989354  Biso 1.000000     H
    H   1.0     0.723779     0.263051     0.989355  Biso 1.000000     H
    H   1.0     0.126116     0.287762     0.050565  Biso 1.000000     H
    H   1.0     0.626101     0.287763     0.050567  Biso 1.000000     H
    H   1.0     0.426300     0.457989     0.069945  Biso 1.000000     H
    H   1.0     0.926287     0.457989     0.069945  Biso 1.000000     H
    H   1.0     0.404118     0.497415     0.000000  Biso 1.000000     H
    H   1.0     0.904101     0.497414     0.000000  Biso 1.000000     H
    H   1.0     0.126113     0.513550     0.098873  Biso 1.000000     H
    H   1.0     0.626093     0.513548     0.098877  Biso 1.000000     H
    H   1.0     0.120783     0.548338     0.029280  Biso 1.000000     H
    H   1.0     0.620773     0.548337     0.029284  Biso 1.000000     H
    H   1.0     0.306751     0.649779     0.325486  Biso 1.000000     H
    H   1.0     0.806732     0.649780     0.325486  Biso 1.000000     H
    H   1.0     0.443235     0.606970     0.305357  Biso 1.000000     H
    H   1.0     0.943219     0.606972     0.305358  Biso 1.000000     H
    H   1.0     0.165607     0.562464     0.343757  Biso 1.000000     H
    H   1.0     0.665592     0.562464     0.343757  Biso 1.000000     H
    H   1.0     0.317823     0.525149     0.335806  Biso 1.000000     H
    H   1.0     0.817810     0.525150     0.335807  Biso 1.000000     H
    H   1.0     0.176364     0.651987     0.583247  Biso 1.000000     H
    H   1.0     0.676342     0.651987     0.583247  Biso 1.000000     H
    H   1.0     0.092918     0.670637     0.514726  Biso 1.000000     H
    H   1.0     0.592899     0.670637     0.514725  Biso 1.000000     H
    H   1.0     0.275620     0.736009     0.489275  Biso 1.000000     H
    H   1.0     0.775600     0.736009     0.489275  Biso 1.000000     H
    H   1.0     0.374680     0.711863     0.550184  Biso 1.000000     H
    H   1.0     0.874660     0.711863     0.550184  Biso 1.000000     H
    H   1.0     0.074469     0.541583     0.569064  Biso 1.000000     H
    H   1.0     0.574454     0.541581     0.569063  Biso 1.000000     H
    H   1.0     0.095225     0.502059     0.501245  Biso 1.000000     H
    H   1.0     0.595209     0.502058     0.501244  Biso 1.000000     H
    H   1.0     0.374384     0.486456     0.598368  Biso 1.000000     H
    H   1.0     0.874370     0.486458     0.598370  Biso 1.000000     H
    H   1.0     0.378511     0.451465     0.528691  Biso 1.000000     H
    H   1.0     0.878494     0.451468     0.528692  Biso 1.000000     H
    H   1.0     0.309284     0.850446     0.824764  Biso 1.000000     H
    H   1.0     0.809267     0.850446     0.824764  Biso 1.000000     H
    H   1.0     0.444475     0.893628     0.804251  Biso 1.000000     H
    H   1.0     0.944459     0.893628     0.804251  Biso 1.000000     H
    H   1.0     0.167018     0.937742     0.843651  Biso 1.000000     H
    H   1.0     0.667002     0.937743     0.843651  Biso 1.000000     H
    H   1.0     0.319295     0.975012     0.836282  Biso 1.000000     H
    H   1.0     0.819280     0.975012     0.836282  Biso 1.000000     H
    H   1.0     0.174478     0.848058     0.082156  Biso 1.000000     H
    H   1.0     0.674461     0.848059     0.082155  Biso 1.000000     H
    H   1.0     0.093305     0.828885     0.013184  Biso 1.000000     H
    H   1.0     0.593291     0.828884     0.013183  Biso 1.000000     H
    H   1.0     0.276284     0.763046     0.989365  Biso 1.000000     H
    H   1.0     0.776275     0.763047     0.989366  Biso 1.000000     H
    H   1.0     0.373865     0.787726     0.050583  Biso 1.000000     H
    H   1.0     0.873851     0.787727     0.050585  Biso 1.000000     H
    H   1.0     0.073657     0.957956     0.069874  Biso 1.000000     H
    H   1.0     0.573642     0.957956     0.069874  Biso 1.000000     H
    H   1.0     0.095876    -0.002602     0.000000  Biso 1.000000     H
    H   1.0     0.595861    -0.002603     0.000000  Biso 1.000000     H
    H   1.0     0.373843     0.013543     0.098862  Biso 1.000000     H
    H   1.0     0.873827     0.013543     0.098862  Biso 1.000000     H
    H   1.0     0.379177     0.048347     0.029280  Biso 1.000000     H
    H   1.0     0.879160     0.048347     0.029280  Biso 1.000000     H
    H   1.0     0.192855     0.149828     0.325452  Biso 1.000000     H
    H   1.0     0.692836     0.149828     0.325452  Biso 1.000000     H
    H   1.0     0.056440     0.106992     0.305417  Biso 1.000000     H
    H   1.0     0.556422     0.106992     0.305417  Biso 1.000000     H
    H   1.0     0.334217     0.062555     0.343710  Biso 1.000000     H
    H   1.0     0.834201     0.062557     0.343709  Biso 1.000000     H
    H   1.0     0.182092     0.025201     0.335835  Biso 1.000000     H
    H   1.0     0.682078     0.025201     0.335835  Biso 1.000000     H
    H   1.0     0.323641     0.151953     0.583254  Biso 1.000000     H
    H   1.0     0.823621     0.151953     0.583255  Biso 1.000000     H
    H   1.0     0.407139     0.170574     0.514721  Biso 1.000000     H
    H   1.0     0.907127     0.170572     0.514723  Biso 1.000000     H
    H   1.0     0.224530     0.236008     0.489295  Biso 1.000000     H
    H   1.0     0.724530     0.236010     0.489292  Biso 1.000000     H
    H   1.0     0.125405     0.211902     0.550218  Biso 1.000000     H
    H   1.0     0.625392     0.211905     0.550212  Biso 1.000000     H
    H   1.0     0.425484     0.041665     0.569163  Biso 1.000000     H
    H   1.0     0.925468     0.041665     0.569163  Biso 1.000000     H
    H   1.0     0.404667     0.000000     0.501345  Biso 1.000000     H
    H   1.0     0.904651     0.000000     0.501345  Biso 1.000000     H
    H   1.0     0.125528     0.986493     0.598403  Biso 1.000000     H
    H   1.0     0.625513     0.986493     0.598402  Biso 1.000000     H
    H   1.0     0.121484     0.951545     0.528700  Biso 1.000000     H
    H   1.0     0.621468     0.951545     0.528700  Biso 1.000000     H
    H   1.0     0.322056     0.715504     0.674985  Biso 1.000000     H
    H   1.0     0.822040     0.715504     0.674984  Biso 1.000000     H
    H   1.0     0.347100     0.706276     0.754790  Biso 1.000000     H
    H   1.0     0.847084     0.706276     0.754790  Biso 1.000000     H
    H   1.0     0.468997     0.680785     0.701798  Biso 1.000000     H
    H   1.0     0.968981     0.680785     0.701797  Biso 1.000000     H
    H   1.0     0.116650     0.807828     0.767064  Biso 1.000000     H
    H   1.0     0.616636     0.807828     0.767065  Biso 1.000000     H
    H   1.0     0.118380     0.735447     0.774741  Biso 1.000000     H
    H   1.0     0.618364     0.735446     0.774741  Biso 1.000000     H
    H   1.0     0.487573     0.774224     0.810247  Biso 1.000000     H
    H   1.0     0.987556     0.774224     0.810246  Biso 1.000000     H
    H   1.0     0.402819     0.799466     0.712458  Biso 1.000000     H
    H   1.0     0.902803     0.799466     0.712458  Biso 1.000000     H
    H   1.0     0.036265     0.768488     0.675930  Biso 1.000000     H
    H   1.0     0.536250     0.768488     0.675930  Biso 1.000000     H
    H   1.0     0.181434     0.284467     0.174705  Biso 1.000000     H
    H   1.0     0.681418     0.284467     0.174705  Biso 1.000000     H
    H   1.0     0.155352     0.294372     0.254405  Biso 1.000000     H
    H   1.0     0.655337     0.294372     0.254405  Biso 1.000000     H
    H   1.0     0.034582     0.319669     0.200932  Biso 1.000000     H
    H   1.0     0.534567     0.319670     0.200932  Biso 1.000000     H
    H   1.0     0.383879     0.193554     0.266134  Biso 1.000000     H
    H   1.0     0.883865     0.193552     0.266133  Biso 1.000000     H
    H   1.0     0.384322     0.265945     0.274135  Biso 1.000000     H
    H   1.0     0.884306     0.265943     0.274134  Biso 1.000000     H
    H   1.0     0.013632     0.226588     0.309704  Biso 1.000000     H
    H   1.0     0.513616     0.226589     0.309705  Biso 1.000000     H
    H   1.0     0.099312     0.201017     0.212398  Biso 1.000000     H
    H   1.0     0.599293     0.201018     0.212399  Biso 1.000000     H
    H   1.0     0.466708     0.231860     0.175246  Biso 1.000000     H
    H   1.0     0.966695     0.231859     0.175245  Biso 1.000000     H
    H   1.0     0.178072     0.215486     0.674969  Biso 1.000000     H
    H   1.0     0.678053     0.215487     0.674967  Biso 1.000000     H
    H   1.0     0.152949     0.206265     0.754775  Biso 1.000000     H
    H   1.0     0.652934     0.206265     0.754773  Biso 1.000000     H
    H   1.0     0.031131     0.180775     0.701789  Biso 1.000000     H
    H   1.0     0.531112     0.180775     0.701788  Biso 1.000000     H
    H   1.0     0.383317     0.307829     0.767065  Biso 1.000000     H
    H   1.0     0.883302     0.307830     0.767063  Biso 1.000000     H
    H   1.0     0.381653     0.235447     0.774751  Biso 1.000000     H
    H   1.0     0.881638     0.235448     0.774751  Biso 1.000000     H
    H   1.0     0.012404     0.274227     0.810232  Biso 1.000000     H
    H   1.0     0.512389     0.274225     0.810233  Biso 1.000000     H
    H   1.0     0.097192     0.299454     0.712437  Biso 1.000000     H
    H   1.0     0.597174     0.299454     0.712438  Biso 1.000000     H
    H   1.0     0.463798     0.268481     0.675924  Biso 1.000000     H
    H   1.0     0.963785     0.268480     0.675924  Biso 1.000000     H
    H   1.0     0.318064     0.784495     0.174674  Biso 1.000000     H
    H   1.0     0.818048     0.784494     0.174675  Biso 1.000000     H
    H   1.0     0.344167     0.794419     0.254361  Biso 1.000000     H
    H   1.0     0.844151     0.794418     0.254362  Biso 1.000000     H
    H   1.0     0.464952     0.819661     0.200844  Biso 1.000000     H
    H   1.0     0.964935     0.819661     0.200845  Biso 1.000000     H
    H   1.0     0.115619     0.693565     0.266083  Biso 1.000000     H
    H   1.0     0.615600     0.693564     0.266082  Biso 1.000000     H
    H   1.0     0.115026     0.765954     0.274084  Biso 1.000000     H
    H   1.0     0.615010     0.765954     0.274083  Biso 1.000000     H
    H   1.0     0.485739     0.726587     0.309656  Biso 1.000000     H
    H   1.0     0.985724     0.726587     0.309657  Biso 1.000000     H
    H   1.0     0.400159     0.701036     0.212370  Biso 1.000000     H
    H   1.0     0.900146     0.701036     0.212371  Biso 1.000000     H
    H   1.0     0.032830     0.731837     0.175207  Biso 1.000000     H
    H   1.0     0.532812     0.731837     0.175206  Biso 1.000000     H
    C   1.0     0.220850     0.394918     0.742017  Biso 1.000000     C
    C   1.0     0.720833     0.394918     0.742018  Biso 1.000000     C
    C   1.0     0.166237     0.390744     0.806337  Biso 1.000000     C
    C   1.0     0.666220     0.390744     0.806337  Biso 1.000000     C
    C   1.0     0.223125     0.435256     0.847638  Biso 1.000000     C
    C   1.0     0.723109     0.435256     0.847638  Biso 1.000000     C
    C   1.0     0.309104     0.333712     0.035636  Biso 1.000000     C
    C   1.0     0.809089     0.333712     0.035636  Biso 1.000000     C
    C   1.0     0.230425     0.280381     0.035335  Biso 1.000000     C
    C   1.0     0.730408     0.280381     0.035336  Biso 1.000000     C
    C   1.0     0.287065     0.237453     0.078297  Biso 1.000000     C
    C   1.0     0.787049     0.237453     0.078298  Biso 1.000000     C
    C   1.0     0.477576     0.482220     0.035252  Biso 1.000000     C
    C   1.0     0.977560     0.482220     0.035251  Biso 1.000000     C
    C   1.0     0.056837     0.528979     0.063936  Biso 1.000000     C
    C   1.0     0.556822     0.528978     0.063938  Biso 1.000000     C
    C   1.0     0.471764     0.573403     0.092518  Biso 1.000000     C
    C   1.0     0.971748     0.573404     0.092518  Biso 1.000000     C
    C   1.0     0.139460     0.406375     0.035041  Biso 1.000000     C
    C   1.0     0.639444     0.406375     0.035042  Biso 1.000000     C
    C   1.0     0.089435     0.455559     0.939669  Biso 1.000000     C
    C   1.0     0.589419     0.455559     0.939669  Biso 1.000000     C
    C   1.0     0.267401     0.385093     0.941393  Biso 1.000000     C
    C   1.0     0.767386     0.385093     0.941394  Biso 1.000000     C
    C   1.0     0.279509     0.605268     0.242301  Biso 1.000000     C
    C   1.0     0.779494     0.605268     0.242301  Biso 1.000000     C
    C   1.0     0.332409     0.609555     0.306894  Biso 1.000000     C
    C   1.0     0.832393     0.609556     0.306895  Biso 1.000000     C
    C   1.0     0.275485     0.564836     0.347658  Biso 1.000000     C
    C   1.0     0.775471     0.564836     0.347659  Biso 1.000000     C
    C   1.0     0.191236     0.665911     0.536567  Biso 1.000000     C
    C   1.0     0.691215     0.665911     0.536567  Biso 1.000000     C
    C   1.0     0.270059     0.719170     0.535402  Biso 1.000000     C
    C   1.0     0.770039     0.719170     0.535402  Biso 1.000000     C
    C   1.0     0.214460     0.762463     0.578344  Biso 1.000000     C
    C   1.0     0.714442     0.762463     0.578344  Biso 1.000000     C
    C   1.0     0.022419     0.517397     0.534444  Biso 1.000000     C
    C   1.0     0.522403     0.517395     0.534443  Biso 1.000000     C
    C   1.0     0.443076     0.470830     0.563194  Biso 1.000000     C
    C   1.0     0.943060     0.470832     0.563195  Biso 1.000000     C
    C   1.0     0.028156     0.426448     0.591524  Biso 1.000000     C
    C   1.0     0.528141     0.426447     0.591524  Biso 1.000000     C
    C   1.0     0.360521     0.593189     0.535219  Biso 1.000000     C
    C   1.0     0.860502     0.593189     0.535220  Biso 1.000000     C
    C   1.0     0.410064     0.544382     0.439239  Biso 1.000000     C
    C   1.0     0.910050     0.544384     0.439240  Biso 1.000000     C
    C   1.0     0.231686     0.614605     0.442030  Biso 1.000000     C
    C   1.0     0.731668     0.614605     0.442030  Biso 1.000000     C
    C   1.0     0.279118     0.894937     0.742014  Biso 1.000000     C
    C   1.0     0.779102     0.894937     0.742014  Biso 1.000000     C
    C   1.0     0.333750     0.890764     0.806318  Biso 1.000000     C
    C   1.0     0.833734     0.890764     0.806318  Biso 1.000000     C
    C   1.0     0.276859     0.935286     0.847635  Biso 1.000000     C
    C   1.0     0.776844     0.935286     0.847635  Biso 1.000000     C
    C   1.0     0.190925     0.833728     0.035646  Biso 1.000000     C
    C   1.0     0.690910     0.833728     0.035646  Biso 1.000000     C
    C   1.0     0.269574     0.780374     0.035347  Biso 1.000000     C
    C   1.0     0.769561     0.780375     0.035348  Biso 1.000000     C
    C   1.0     0.212835     0.737454     0.078299  Biso 1.000000     C
    C   1.0     0.712820     0.737454     0.078299  Biso 1.000000     C
    C   1.0     0.022387     0.982206     0.035200  Biso 1.000000     C
    C   1.0     0.522372     0.982205     0.035200  Biso 1.000000     C
    C   1.0     0.443124     0.028974     0.063917  Biso 1.000000     C
    C   1.0     0.943108     0.028975     0.063917  Biso 1.000000     C
    C   1.0     0.028142     0.073389     0.092504  Biso 1.000000     C
    C   1.0     0.528127     0.073389     0.092503  Biso 1.000000     C
    C   1.0     0.360550     0.906372     0.035009  Biso 1.000000     C
    C   1.0     0.860534     0.906372     0.035009  Biso 1.000000     C
    C   1.0     0.410494     0.955600     0.939647  Biso 1.000000     C
    C   1.0     0.910477     0.955600     0.939647  Biso 1.000000     C
    C   1.0     0.232657     0.885105     0.941391  Biso 1.000000     C
    C   1.0     0.732642     0.885106     0.941391  Biso 1.000000     C
    C   1.0     0.220131     0.105285     0.242283  Biso 1.000000     C
    C   1.0     0.720112     0.105285     0.242283  Biso 1.000000     C
    C   1.0     0.167263     0.109589     0.306896  Biso 1.000000     C
    C   1.0     0.667244     0.109589     0.306896  Biso 1.000000     C
    C   1.0     0.224338     0.064900     0.347656  Biso 1.000000     C
    C   1.0     0.724322     0.064900     0.347656  Biso 1.000000     C
    C   1.0     0.308804     0.165886     0.536577  Biso 1.000000     C
    C   1.0     0.808789     0.165886     0.536578  Biso 1.000000     C
    C   1.0     0.230043     0.219175     0.535424  Biso 1.000000     C
    C   1.0     0.730034     0.219176     0.535422  Biso 1.000000     C
    C   1.0     0.285647     0.262460     0.578347  Biso 1.000000     C
    C   1.0     0.785635     0.262460     0.578346  Biso 1.000000     C
    C   1.0     0.477507     0.017474     0.534515  Biso 1.000000     C
    C   1.0     0.977491     0.017474     0.534515  Biso 1.000000     C
    C   1.0     0.056875     0.970887     0.563227  Biso 1.000000     C
    C   1.0     0.556859     0.970887     0.563227  Biso 1.000000     C
    C   1.0     0.471841     0.926477     0.591529  Biso 1.000000     C
    C   1.0     0.971825     0.926477     0.591529  Biso 1.000000     C
    C   1.0     0.139447     0.093219     0.535253  Biso 1.000000     C
    C   1.0     0.639431     0.093219     0.535253  Biso 1.000000     C
    C   1.0     0.089822     0.044453     0.439271  Biso 1.000000     C
    C   1.0     0.589806     0.044453     0.439271  Biso 1.000000     C
    C   1.0     0.268228     0.114636     0.442028  Biso 1.000000     C
    C   1.0     0.768212     0.114637     0.442028  Biso 1.000000     C
    C   1.0     0.397392     0.713675     0.711200  Biso 1.000000     C
    C   1.0     0.897376     0.713675     0.711200  Biso 1.000000     C
    C   1.0     0.053844     0.771436     0.770511  Biso 1.000000     C
    C   1.0     0.553829     0.771436     0.770511  Biso 1.000000     C
    C   1.0     0.105615     0.286715     0.210713  Biso 1.000000     C
    C   1.0     0.605599     0.286715     0.210713  Biso 1.000000     C
    C   1.0     0.447806     0.229635     0.269871  Biso 1.000000     C
    C   1.0     0.947791     0.229633     0.269870  Biso 1.000000     C
    C   1.0     0.102697     0.213662     0.711186  Biso 1.000000     C
    C   1.0     0.602679     0.213662     0.711185  Biso 1.000000     C
    C   1.0     0.446155     0.271435     0.770508  Biso 1.000000     C
    C   1.0     0.946139     0.271436     0.770507  Biso 1.000000     C
    C   1.0     0.393892     0.786734     0.210658  Biso 1.000000     C
    C   1.0     0.893876     0.786733     0.210659  Biso 1.000000     C
    C   1.0     0.051615     0.729636     0.269825  Biso 1.000000     C
    C   1.0     0.551598     0.729636     0.269824  Biso 1.000000     C
    N   1.0     0.191711     0.424977     0.912161  Biso 1.000000     N
    N   1.0     0.691695     0.424977     0.912162  Biso 1.000000     N
    N   1.0     0.236534     0.376909     0.002598  Biso 1.000000     N
    N   1.0     0.736519     0.376909     0.002598  Biso 1.000000     N
    N   1.0     0.070272     0.445738     0.000000  Biso 1.000000     N
    N   1.0     0.570256     0.445737     0.000000  Biso 1.000000     N
    N   1.0     0.307112     0.574827     0.412264  Biso 1.000000     N
    N   1.0     0.807096     0.574828     0.412264  Biso 1.000000     N
    N   1.0     0.262827     0.622523     0.503248  Biso 1.000000     N
    N   1.0     0.762807     0.622523     0.503248  Biso 1.000000     N
    N   1.0     0.429522     0.553949     0.501411  Biso 1.000000     N
    N   1.0     0.929506     0.553950     0.501412  Biso 1.000000     N
    N   1.0     0.308290     0.925001     0.912151  Biso 1.000000     N
    N   1.0     0.808275     0.925002     0.912151  Biso 1.000000     N
    N   1.0     0.263514     0.876906     0.002585  Biso 1.000000     N
    N   1.0     0.763499     0.876906     0.002585  Biso 1.000000     N
    N   1.0     0.429718     0.945743     0.000000  Biso 1.000000     N
    N   1.0     0.929702     0.945743     0.000000  Biso 1.000000     N
    N   1.0     0.192743     0.074897     0.412271  Biso 1.000000     N
    N   1.0     0.692727     0.074897     0.412271  Biso 1.000000     N
    N   1.0     0.237163     0.122529     0.503266  Biso 1.000000     N
    N   1.0     0.737147     0.122529     0.503266  Biso 1.000000     N
    N   1.0     0.070376     0.054017     0.501452  Biso 1.000000     N
    N   1.0     0.570360     0.054017     0.501452  Biso 1.000000     N
    N   1.0     0.471448     0.766310     0.714438  Biso 1.000000     N
    N   1.0     0.971432     0.766310     0.714437  Biso 1.000000     N
    N   1.0     0.030919     0.234249     0.213957  Biso 1.000000     N
    N   1.0     0.530901     0.234250     0.213958  Biso 1.000000     N
    N   1.0     0.028591     0.266301     0.714423  Biso 1.000000     N
    N   1.0     0.528573     0.266301     0.714423  Biso 1.000000     N
    N   1.0     0.468561     0.734247     0.213909  Biso 1.000000     N
    N   1.0     0.968547     0.734247     0.213910  Biso 1.000000     N
    O   1.0     0.211895     0.350071     0.708804  Biso 1.000000     O
    O   1.0     0.711879     0.350071     0.708804  Biso 1.000000     O
    O   1.0     0.271837     0.437296     0.722428  Biso 1.000000     O
    O   1.0     0.771821     0.437297     0.722428  Biso 1.000000     O
    O   1.0     0.241520     0.189358     0.069434  Biso 1.000000     O
    O   1.0     0.741505     0.189358     0.069434  Biso 1.000000     O
    O   1.0     0.366593     0.252363     0.119962  Biso 1.000000     O
    O   1.0     0.866577     0.252363     0.119962  Biso 1.000000     O
    O   1.0     0.344150     0.569530     0.087752  Biso 1.000000     O
    O   1.0     0.844134     0.569530     0.087752  Biso 1.000000     O
    O   1.0     0.029481     0.612966     0.119746  Biso 1.000000     O
    O   1.0     0.529465     0.612966     0.119746  Biso 1.000000     O
    O   1.0     0.355424     0.358898     0.914918  Biso 1.000000     O
    O   1.0     0.855408     0.358898     0.914919  Biso 1.000000     O
    O   1.0     0.116762     0.397980     0.088981  Biso 1.000000     O
    O   1.0     0.616747     0.397980     0.088982  Biso 1.000000     O
    O   1.0     0.022276     0.489009     0.911755  Biso 1.000000     O
    O   1.0     0.522259     0.489009     0.911755  Biso 1.000000     O
    O   1.0     0.284801     0.650612     0.210019  Biso 1.000000     O
    O   1.0     0.784786     0.650612     0.210019  Biso 1.000000     O
    O   1.0     0.233031     0.562426     0.221506  Biso 1.000000     O
    O   1.0     0.733015     0.562426     0.221506  Biso 1.000000     O
    O   1.0     0.257060     0.810715     0.568095  Biso 1.000000     O
    O   1.0     0.757044     0.810715     0.568095  Biso 1.000000     O
    O   1.0     0.138426     0.747723     0.621336  Biso 1.000000     O
    O   1.0     0.638409     0.747724     0.621336  Biso 1.000000     O
    O   1.0     0.155815     0.430400     0.586763  Biso 1.000000     O
    O   1.0     0.655799     0.430400     0.586763  Biso 1.000000     O
    O   1.0     0.470464     0.386877     0.618495  Biso 1.000000     O
    O   1.0     0.970448     0.386877     0.618495  Biso 1.000000     O
    O   1.0     0.143605     0.640989     0.416023  Biso 1.000000     O
    O   1.0     0.643585     0.640988     0.416023  Biso 1.000000     O
    O   1.0     0.383812     0.601639     0.589151  Biso 1.000000     O
    O   1.0     0.883793     0.601640     0.589152  Biso 1.000000     O
    O   1.0     0.477496     0.511264     0.410750  Biso 1.000000     O
    O   1.0     0.977485     0.511267     0.410750  Biso 1.000000     O
    O   1.0     0.288089     0.850084     0.708803  Biso 1.000000     O
    O   1.0     0.788073     0.850085     0.708803  Biso 1.000000     O
    O   1.0     0.228108     0.937318     0.722433  Biso 1.000000     O
    O   1.0     0.728092     0.937318     0.722433  Biso 1.000000     O
    O   1.0     0.258344     0.689345     0.069422  Biso 1.000000     O
    O   1.0     0.758331     0.689345     0.069422  Biso 1.000000     O
    O   1.0     0.133280     0.752373     0.119974  Biso 1.000000     O
    O   1.0     0.633264     0.752373     0.119974  Biso 1.000000     O
    O   1.0     0.155766     0.069520     0.087741  Biso 1.000000     O
    O   1.0     0.655751     0.069520     0.087741  Biso 1.000000     O
    O   1.0     0.470337     0.112948     0.119733  Biso 1.000000     O
    O   1.0     0.970321     0.112949     0.119733  Biso 1.000000     O
    O   1.0     0.144660     0.858915     0.914933  Biso 1.000000     O
    O   1.0     0.644645     0.858916     0.914933  Biso 1.000000     O
    O   1.0     0.383251     0.897970     0.088942  Biso 1.000000     O
    O   1.0     0.883236     0.897970     0.088942  Biso 1.000000     O
    O   1.0     0.477555     0.989086     0.911740  Biso 1.000000     O
    O   1.0     0.977537     0.989087     0.911740  Biso 1.000000     O
    O   1.0     0.214511     0.150591     0.209951  Biso 1.000000     O
    O   1.0     0.714489     0.150591     0.209950  Biso 1.000000     O
    O   1.0     0.266903     0.062467     0.221520  Biso 1.000000     O
    O   1.0     0.766887     0.062467     0.221520  Biso 1.000000     O
    O   1.0     0.243068     0.310720     0.568088  Biso 1.000000     O
    O   1.0     0.743055     0.310720     0.568088  Biso 1.000000     O
    O   1.0     0.361641     0.247715     0.621337  Biso 1.000000     O
    O   1.0     0.861627     0.247715     0.621337  Biso 1.000000     O
    O   1.0     0.344182     0.930408     0.586761  Biso 1.000000     O
    O   1.0     0.844166     0.930408     0.586761  Biso 1.000000     O
    O   1.0     0.029574     0.886907     0.618489  Biso 1.000000     O
    O   1.0     0.529558     0.886907     0.618489  Biso 1.000000     O
    O   1.0     0.356307     0.141009     0.416003  Biso 1.000000     O
    O   1.0     0.856291     0.141009     0.416003  Biso 1.000000     O
    O   1.0     0.116198     0.101653     0.589198  Biso 1.000000     O
    O   1.0     0.616182     0.101653     0.589198  Biso 1.000000     O
    O   1.0     0.022408     0.011348     0.410787  Biso 1.000000     O
    O   1.0     0.522393     0.011348     0.410787  Biso 1.000000     O
   Zn   1.0     0.271790     0.372847     0.624534  Biso 1.000000    Zn
   Zn   1.0     0.771775     0.372847     0.624535  Biso 1.000000    Zn
   Zn   1.0     0.228034     0.627196     0.125453  Biso 1.000000    Zn
   Zn   1.0     0.728018     0.627196     0.125453  Biso 1.000000    Zn
   Zn   1.0     0.228231     0.872850     0.624532  Biso 1.000000    Zn
   Zn   1.0     0.728215     0.872850     0.624532  Biso 1.000000    Zn
   Zn   1.0     0.271824     0.127189     0.125441  Biso 1.000000    Zn
   Zn   1.0     0.771807     0.127189     0.125441  Biso 1.000000    Zn
