#======================================================================

# CRYSTAL DATA

#----------------------------------------------------------------------

data_VESTA_phase_1


_pd_phase_name                         MOF
_cell_length_a                         21.90000
_cell_length_b                         13.18000
_cell_length_c                         13.82100
_cell_angle_alpha                      118.21800
_cell_angle_beta                       108.16800
_cell_angle_gamma                      89.86800
_symmetry_space_group_name_H-M         "P 1"
_symmetry_Int_Tables_number            1

loop_
_symmetry_equiv_pos_as_xyz
   "x, y, z"

loop_
   _atom_site_label
   _atom_site_occupancy
   _atom_site_fract_x
   _atom_site_fract_y
   _atom_site_fract_z
   _atom_site_adp_type
   _atom_site_B_iso_or_equiv
   _atom_site_type_symbol
    H   1.0     0.451147     0.784441     0.132897  Biso 1.000000     H
    H   1.0     0.951014     0.784680     0.132563  Biso 1.000000     H
    H   1.0     0.447076     0.711262     0.269550  Biso 1.000000     H
    H   1.0     0.946824     0.711344     0.269046  Biso 1.000000     H
    H   1.0     0.353108     0.741285     0.341479  Biso 1.000000     H
    H   1.0     0.852658     0.740914     0.340455  Biso 1.000000     H
    H   1.0     0.276099     0.903703     0.131880  Biso 1.000000     H
    H   1.0     0.775694     0.903108     0.130625  Biso 1.000000     H
    H   1.0     0.203190     0.812759     0.208748  Biso 1.000000     H
    H   1.0     0.702751     0.813115     0.207205  Biso 1.000000     H
    H   1.0     0.251792     0.944233     0.334956  Biso 1.000000     H
    H   1.0     0.751569     0.943515     0.334609  Biso 1.000000     H
    H   1.0     0.271293     0.748928     0.518007  Biso 1.000000     H
    H   1.0     0.770797     0.747529     0.515920  Biso 1.000000     H
    H   1.0     0.207604     0.795840     0.650041  Biso 1.000000     H
    H   1.0     0.707728     0.795408     0.649041  Biso 1.000000     H
    H   1.0     0.112143     0.896288     0.625379  Biso 1.000000     H
    H   1.0     0.612456     0.896467     0.625209  Biso 1.000000     H
    H   1.0     0.147016     0.909581     0.340493  Biso 1.000000     H
    H   1.0     0.646291     0.908378     0.338931  Biso 1.000000     H
    H   1.0     0.055600     0.988401     0.393660  Biso 1.000000     H
    H   1.0     0.555319     0.988089     0.393158  Biso 1.000000     H
    H   1.0     0.299521     0.652282     0.868734  Biso 1.000000     H
    H   1.0     0.799483     0.652091     0.867498  Biso 1.000000     H
    H   1.0     0.303956     0.443022     0.734360  Biso 1.000000     H
    H   1.0     0.804124     0.442982     0.733029  Biso 1.000000     H
    H   1.0     0.397805     0.400119     0.662167  Biso 1.000000     H
    H   1.0     0.898289     0.400478     0.661684  Biso 1.000000     H
    H   1.0     0.474115     0.770068     0.867546  Biso 1.000000     H
    H   1.0     0.974454     0.770477     0.867956  Biso 1.000000     H
    H   1.0     0.047873     0.601011     0.793212  Biso 1.000000     H
    H   1.0     0.547414     0.599272     0.792683  Biso 1.000000     H
    H   1.0    -0.000083     0.610141     0.668086  Biso 1.000000     H
    H   1.0     0.499665     0.610338     0.668632  Biso 1.000000     H
    H   1.0     0.478220     0.232245     0.480492  Biso 1.000000     H
    H   1.0     0.978963     0.232771     0.481669  Biso 1.000000     H
    H   1.0     0.042628     0.148573     0.349507  Biso 1.000000     H
    H   1.0     0.542235     0.148214     0.348912  Biso 1.000000     H
    H   1.0     0.138106     0.272826     0.374516  Biso 1.000000     H
    H   1.0     0.637795     0.272701     0.374446  Biso 1.000000     H
    H   1.0     0.103709     0.568222     0.660539  Biso 1.000000     H
    H   1.0     0.602886     0.567871     0.659936  Biso 1.000000     H
    H   1.0     0.195162     0.593833     0.607511  Biso 1.000000     H
    H   1.0     0.694552     0.593701     0.607401  Biso 1.000000     H
    H   1.0     0.048995     0.215282     0.867346  Biso 1.000000     H
    H   1.0     0.548865     0.215533     0.867011  Biso 1.000000     H
    H   1.0     0.053188     0.288635     0.730878  Biso 1.000000     H
    H   1.0     0.552943     0.288722     0.730369  Biso 1.000000     H
    H   1.0     0.147358     0.259078     0.659478  Biso 1.000000     H
    H   1.0     0.646912     0.258697     0.658444  Biso 1.000000     H
    H   1.0     0.224317     0.096866     0.869292  Biso 1.000000     H
    H   1.0     0.723909     0.096255     0.868024  Biso 1.000000     H
    H   1.0     0.297263     0.186872     0.792728  Biso 1.000000     H
    H   1.0     0.796825     0.187224     0.791166  Biso 1.000000     H
    H   1.0     0.248446     0.056476     0.665318  Biso 1.000000     H
    H   1.0     0.748228     0.055733     0.664975  Biso 1.000000     H
    H   1.0     0.229221     0.252465     0.484014  Biso 1.000000     H
    H   1.0     0.728725     0.251031     0.481901  Biso 1.000000     H
    H   1.0     0.292286     0.204574     0.350886  Biso 1.000000     H
    H   1.0     0.792423     0.204133     0.349881  Biso 1.000000     H
    H   1.0     0.387556     0.103510     0.374716  Biso 1.000000     H
    H   1.0     0.887885     0.103690     0.374554  Biso 1.000000     H
    H   1.0     0.353726     0.091618     0.661007  Biso 1.000000     H
    H   1.0     0.852998     0.090382     0.659423  Biso 1.000000     H
    H   1.0     0.444697     0.011900     0.606776  Biso 1.000000     H
    H   1.0     0.944421     0.011573     0.606271  Biso 1.000000     H
    H   1.0     0.200528     0.347868     0.132416  Biso 1.000000     H
    H   1.0     0.700491     0.347685     0.131179  Biso 1.000000     H
    H   1.0     0.195892     0.556977     0.266893  Biso 1.000000     H
    H   1.0     0.696061     0.556943     0.265570  Biso 1.000000     H
    H   1.0     0.101728     0.599485     0.338241  Biso 1.000000     H
    H   1.0     0.602214     0.599845     0.337770  Biso 1.000000     H
    H   1.0     0.025553     0.229489     0.131953  Biso 1.000000     H
    H   1.0     0.525894     0.229901     0.132362  Biso 1.000000     H
    H   1.0     0.452600     0.400687     0.207241  Biso 1.000000     H
    H   1.0     0.952139     0.398952     0.206708  Biso 1.000000     H
    H   1.0     0.500354     0.389637     0.331300  Biso 1.000000     H
    H   1.0     0.000000     0.389830     0.331838  Biso 1.000000     H
    H   1.0     0.021057     0.767198     0.518248  Biso 1.000000     H
    H   1.0     0.521797     0.767726     0.519422  Biso 1.000000     H
    H   1.0     0.457787     0.851765     0.651010  Biso 1.000000     H
    H   1.0     0.957395     0.851404     0.650415  Biso 1.000000     H
    H   1.0     0.362228     0.727285     0.625488  Biso 1.000000     H
    H   1.0     0.861915     0.727160     0.625413  Biso 1.000000     H
    H   1.0     0.397129     0.432104     0.339997  Biso 1.000000     H
    H   1.0     0.896304     0.431754     0.339384  Biso 1.000000     H
    H   1.0     0.305466     0.406283     0.392538  Biso 1.000000     H
    H   1.0     0.804853     0.406153     0.392422  Biso 1.000000     H
    C   1.0     0.410675     0.793071     0.164822  Biso 1.000000     C
    C   1.0     0.910472     0.793142     0.164295  Biso 1.000000     C
    C   1.0     0.408138     0.753172     0.240523  Biso 1.000000     C
    C   1.0     0.907856     0.753120     0.239869  Biso 1.000000     C
    C   1.0     0.355741     0.769533     0.280309  Biso 1.000000     C
    C   1.0     0.855373     0.769290     0.279417  Biso 1.000000     C
    C   1.0     0.306870     0.824638     0.242291  Biso 1.000000     C
    C   1.0     0.806428     0.824115     0.241108  Biso 1.000000     C
    C   1.0     0.312925     0.860746     0.164948  Biso 1.000000     C
    C   1.0     0.812573     0.860368     0.163917  Biso 1.000000     C
    C   1.0     0.249710     0.848988     0.284012  Biso 1.000000     C
    C   1.0     0.749186     0.848302     0.282608  Biso 1.000000     C
    C   1.0     0.213815     0.827034     0.422338  Biso 1.000000     C
    C   1.0     0.713144     0.825645     0.420425  Biso 1.000000     C
    C   1.0     0.230036     0.793968     0.508662  Biso 1.000000     C
    C   1.0     0.729616     0.792807     0.506912  Biso 1.000000     C
    C   1.0     0.193481     0.819131     0.581205  Biso 1.000000     C
    C   1.0     0.693407     0.818527     0.580085  Biso 1.000000     C
    C   1.0     0.140043     0.874976     0.567514  Biso 1.000000     C
    C   1.0     0.640080     0.874723     0.566862  Biso 1.000000     C
    C   1.0     0.122506     0.905875     0.479153  Biso 1.000000     C
    C   1.0     0.622293     0.905407     0.478344  Biso 1.000000     C
    C   1.0     0.160351     0.883388     0.407271  Biso 1.000000     C
    C   1.0     0.659803     0.882377     0.405852  Biso 1.000000     C
    C   1.0     0.065345     0.960039     0.459315  Biso 1.000000     C
    C   1.0     0.565186     0.959791     0.458873  Biso 1.000000     C
    C   1.0     0.454366     0.017782     0.878352  Biso 1.000000     C
    C   1.0     0.954455     0.017771     0.878278  Biso 1.000000     C
    C   1.0     0.339968     0.628566     0.836799  Biso 1.000000     C
    C   1.0     0.840068     0.628543     0.835925  Biso 1.000000     C
    C   1.0     0.342730     0.513264     0.762414  Biso 1.000000     C
    C   1.0     0.842947     0.513327     0.761496  Biso 1.000000     C
    C   1.0     0.395062     0.489327     0.722460  Biso 1.000000     C
    C   1.0     0.895449     0.489612     0.722001  Biso 1.000000     C
    C   1.0     0.443769     0.581526     0.759339  Biso 1.000000     C
    C   1.0     0.944190     0.581950     0.759317  Biso 1.000000     C
    C   1.0     0.437451     0.694712     0.835428  Biso 1.000000     C
    C   1.0     0.937761     0.695027     0.835459  Biso 1.000000     C
    C   1.0     0.001415     0.564221     0.717774  Biso 1.000000     C
    C   1.0     0.500875     0.563560     0.717433  Biso 1.000000     C
    C   1.0     0.036666     0.405174     0.578032  Biso 1.000000     C
    C   1.0     0.535852     0.404715     0.577083  Biso 1.000000     C
    C   1.0     0.020292     0.286778     0.491268  Biso 1.000000     C
    C   1.0     0.519613     0.286321     0.490328  Biso 1.000000     C
    C   1.0     0.056763     0.239940     0.418540  Biso 1.000000     C
    C   1.0     0.556273     0.239584     0.417940  Biso 1.000000     C
    C   1.0     0.110290     0.308985     0.432535  Biso 1.000000     C
    C   1.0     0.609856     0.308748     0.432255  Biso 1.000000     C
    C   1.0     0.127938     0.427246     0.521182  Biso 1.000000     C
    C   1.0     0.627383     0.427002     0.520915  Biso 1.000000     C
    C   1.0     0.090246     0.476043     0.593408  Biso 1.000000     C
    C   1.0     0.589515     0.475684     0.592831  Biso 1.000000     C
    C   1.0     0.185155     0.500643     0.541168  Biso 1.000000     C
    C   1.0     0.684617     0.500506     0.541096  Biso 1.000000     C
    C   1.0     0.295783     0.138431     0.121517  Biso 1.000000     C
    C   1.0     0.795646     0.138397     0.120847  Biso 1.000000     C
    C   1.0     0.089539     0.206827     0.835621  Biso 1.000000     C
    C   1.0     0.589337     0.206899     0.835086  Biso 1.000000     C
    C   1.0     0.092155     0.246856     0.760053  Biso 1.000000     C
    C   1.0     0.591880     0.246810     0.759396  Biso 1.000000     C
    C   1.0     0.144642     0.230697     0.720513  Biso 1.000000     C
    C   1.0     0.644275     0.230441     0.719606  Biso 1.000000     C
    C   1.0     0.193585     0.175867     0.758816  Biso 1.000000     C
    C   1.0     0.693146     0.175335     0.757626  Biso 1.000000     C
    C   1.0     0.187439     0.139609     0.836003  Biso 1.000000     C
    C   1.0     0.687084     0.139215     0.834956  Biso 1.000000     C
    C   1.0     0.250830     0.151689     0.717324  Biso 1.000000     C
    C   1.0     0.750305     0.150977     0.715901  Biso 1.000000     C
    C   1.0     0.286873     0.174349     0.579510  Biso 1.000000     C
    C   1.0     0.786199     0.172924     0.577571  Biso 1.000000     C
    C   1.0     0.270400     0.207184     0.493021  Biso 1.000000     C
    C   1.0     0.769982     0.205994     0.491250  Biso 1.000000     C
    C   1.0     0.306608     0.181457     0.419844  Biso 1.000000     C
    C   1.0     0.806543     0.180840     0.418716  Biso 1.000000     C
    C   1.0     0.359934     0.125259     0.433066  Biso 1.000000     C
    C   1.0     0.859982     0.124998     0.432413  Biso 1.000000     C
    C   1.0     0.377722     0.094579     0.521587  Biso 1.000000     C
    C   1.0     0.877516     0.094098     0.520773  Biso 1.000000     C
    C   1.0     0.340214     0.117615     0.594083  Biso 1.000000     C
    C   1.0     0.839666     0.116577     0.592647  Biso 1.000000     C
    C   1.0     0.434828     0.040196     0.541059  Biso 1.000000     C
    C   1.0     0.934678     0.039937     0.540617  Biso 1.000000     C
    C   1.0     0.045554     0.982198     0.121635  Biso 1.000000     C
    C   1.0     0.545641     0.982194     0.121559  Biso 1.000000     C
    C   1.0     0.159944     0.371418     0.163989  Biso 1.000000     C
    C   1.0     0.660042     0.371401     0.163111  Biso 1.000000     C
    C   1.0     0.157068     0.486634     0.238425  Biso 1.000000     C
    C   1.0     0.657287     0.486701     0.237518  Biso 1.000000     C
    C   1.0     0.104566     0.510351     0.277920  Biso 1.000000     C
    C   1.0     0.604952     0.510641     0.277461  Biso 1.000000     C
    C   1.0     0.055823     0.418015     0.240602  Biso 1.000000     C
    C   1.0     0.556248     0.418439     0.240592  Biso 1.000000     C
    C   1.0     0.062249     0.304937     0.164452  Biso 1.000000     C
    C   1.0     0.562557     0.305256     0.164477  Biso 1.000000     C
    C   1.0     0.499139     0.436407     0.282489  Biso 1.000000     C
    C   1.0     0.998598     0.435746     0.282145  Biso 1.000000     C
    C   1.0     0.464164     0.595257     0.422839  Biso 1.000000     C
    C   1.0     0.963349     0.594798     0.421887  Biso 1.000000     C
    C   1.0     0.480404     0.713653     0.509592  Biso 1.000000     C
    C   1.0     0.979727     0.713195     0.508651  Biso 1.000000     C
    C   1.0     0.443747     0.760394     0.581984  Biso 1.000000     C
    C   1.0     0.943257     0.760037     0.581382  Biso 1.000000     C
    C   1.0     0.390165     0.691234     0.567676  Biso 1.000000     C
    C   1.0     0.889729     0.690997     0.567391  Biso 1.000000     C
    C   1.0     0.372637     0.572979     0.479019  Biso 1.000000     C
    C   1.0     0.872079     0.572735     0.478746  Biso 1.000000     C
    C   1.0     0.410502     0.524292     0.407099  Biso 1.000000     C
    C   1.0     0.909768     0.523934     0.406515  Biso 1.000000     C
    C   1.0     0.315402     0.499478     0.458843  Biso 1.000000     C
    C   1.0     0.814863     0.499342     0.458766  Biso 1.000000     C
    C   1.0     0.204362     0.861564     0.879059  Biso 1.000000     C
    C   1.0     0.704226     0.861532     0.878397  Biso 1.000000     C
    N   1.0     0.363679     0.845893     0.127256  Biso 1.000000     N
    N   1.0     0.863422     0.845736     0.126486  Biso 1.000000     N
    N   1.0     0.025794     0.973514     0.516116  Biso 1.000000     N
    N   1.0     0.525797     0.973464     0.516004  Biso 1.000000     N
    N   1.0     0.011156     0.048521     0.907465  Biso 1.000000     N
    N   1.0     0.511051     0.048609     0.907269  Biso 1.000000     N
    N   1.0     0.386761     0.718130     0.873249  Biso 1.000000     N
    N   1.0     0.886896     0.718231     0.872817  Biso 1.000000     N
    N   1.0     0.224408     0.457758     0.483632  Biso 1.000000     N
    N   1.0     0.723930     0.457668     0.483682  Biso 1.000000     N
    N   1.0     0.239008     0.140398     0.095103  Biso 1.000000     N
    N   1.0     0.738872     0.140370     0.094343  Biso 1.000000     N
    N   1.0     0.136588     0.154231     0.873427  Biso 1.000000     N
    N   1.0     0.636331     0.154075     0.872651  Biso 1.000000     N
    N   1.0     0.474217     0.026521     0.483927  Biso 1.000000     N
    N   1.0     0.974231     0.026466     0.483821  Biso 1.000000     N
    N   1.0     0.488956     0.951367     0.092641  Biso 1.000000     N
    N   1.0     0.988853     0.951448     0.092447  Biso 1.000000     N
    N   1.0     0.113113     0.281732     0.127095  Biso 1.000000     N
    N   1.0     0.613250     0.281838     0.126665  Biso 1.000000     N
    N   1.0     0.276091     0.542318     0.516259  Biso 1.000000     N
    N   1.0     0.775613     0.542229     0.516308  Biso 1.000000     N
    N   1.0     0.261135     0.859586     0.905557  Biso 1.000000     N
    N   1.0     0.761000     0.859564     0.904811  Biso 1.000000     N
    O   1.0     0.253275     0.797944     0.356379  Biso 1.000000     O
    O   1.0     0.752161     0.795831     0.353617  Biso 1.000000     O
    O   1.0    -0.002721     0.441519     0.644144  Biso 1.000000     O
    O   1.0     0.496190     0.440932     0.642680  Biso 1.000000     O
    O   1.0     0.247858     0.204167     0.646320  Biso 1.000000     O
    O   1.0     0.746733     0.202001     0.643516  Biso 1.000000     O
    O   1.0     0.503822     0.559035     0.357236  Biso 1.000000     O
    O   1.0     0.000000     0.558449     0.355770  Biso 1.000000     O
    S   1.0     0.375473     0.975396     0.834463  Biso 1.000000     S
    S   1.0     0.875524     0.975495     0.834098  Biso 1.000000     S
    S   1.0     0.374817     0.139891     0.162189  Biso 1.000000     S
    S   1.0     0.874677     0.139836     0.161635  Biso 1.000000     S
    S   1.0     0.124485     0.024473     0.165816  Biso 1.000000     S
    S   1.0     0.624534     0.024580     0.165448  Biso 1.000000     S
    S   1.0     0.125332     0.860128     0.838276  Biso 1.000000     S
    S   1.0     0.625192     0.860073     0.837723  Biso 1.000000     S
   Cd   1.0     0.375036     0.915600    -0.000802  Biso 1.000000    Cd
   Cd   1.0     0.874919     0.915566    -0.001365  Biso 1.000000    Cd
   Cd   1.0     0.125094     0.084401     0.001315  Biso 1.000000    Cd
   Cd   1.0     0.624976     0.084371     0.000747  Biso 1.000000    Cd
