#======================================================================

# CRYSTAL DATA

#----------------------------------------------------------------------

data_VESTA_phase_1


_pd_phase_name                         MOF
_cell_length_a                         15.40400
_cell_length_b                         14.82700
_cell_length_c                         15.32400
_cell_angle_alpha                      89.98800
_cell_angle_beta                       89.95800
_cell_angle_gamma                      98.13200
_symmetry_space_group_name_H-M         "P 1"
_symmetry_Int_Tables_number            1

loop_
_symmetry_equiv_pos_as_xyz
   "x, y, z"

loop_
   _atom_site_label
   _atom_site_occupancy
   _atom_site_fract_x
   _atom_site_fract_y
   _atom_site_fract_z
   _atom_site_adp_type
   _atom_site_B_iso_or_equiv
   _atom_site_type_symbol
    H   1.0     0.397771     0.049188     0.958510  Biso 1.000000     H
    H   1.0     0.897765     0.049198     0.958518  Biso 1.000000     H
    H   1.0     0.377032     0.156357     0.993427  Biso 1.000000     H
    H   1.0     0.877018     0.156367     0.993429  Biso 1.000000     H
    H   1.0     0.284874     0.908964     0.986110  Biso 1.000000     H
    H   1.0     0.784869     0.908971     0.986108  Biso 1.000000     H
    H   1.0     0.211971     0.955245     0.915566  Biso 1.000000     H
    H   1.0     0.711964     0.955250     0.915565  Biso 1.000000     H
    H   1.0     0.149850     0.365636     0.967554  Biso 1.000000     H
    H   1.0     0.649838     0.365643     0.967534  Biso 1.000000     H
    H   1.0     0.253137     0.340213     0.000000  Biso 1.000000     H
    H   1.0     0.753118     0.340213     0.000000  Biso 1.000000     H
    H   1.0     0.226211     0.514284     0.904057  Biso 1.000000     H
    H   1.0     0.726210     0.514288     0.904045  Biso 1.000000     H
    H   1.0     0.327756     0.486559     0.940366  Biso 1.000000     H
    H   1.0     0.827751     0.486555     0.940357  Biso 1.000000     H
    H   1.0     0.236897     0.603468     0.369515  Biso 1.000000     H
    H   1.0     0.736891     0.603467     0.369517  Biso 1.000000     H
    H   1.0     0.331671     0.659097     0.371967  Biso 1.000000     H
    H   1.0     0.831664     0.659098     0.371971  Biso 1.000000     H
    H   1.0     0.108448     0.892512     0.376228  Biso 1.000000     H
    H   1.0     0.608446     0.892509     0.376227  Biso 1.000000     H
    H   1.0     0.201292     0.951999     0.374875  Biso 1.000000     H
    H   1.0     0.701290     0.951997     0.374874  Biso 1.000000     H
    H   1.0     0.352124     0.950266     0.459057  Biso 1.000000     H
    H   1.0     0.852122     0.950273     0.459052  Biso 1.000000     H
    H   1.0     0.373413     0.843224     0.493826  Biso 1.000000     H
    H   1.0     0.873404     0.843230     0.493824  Biso 1.000000     H
    H   1.0     0.464885     0.090895     0.486111  Biso 1.000000     H
    H   1.0     0.964886     0.090897     0.486110  Biso 1.000000     H
    H   1.0     0.037858     0.044756     0.415443  Biso 1.000000     H
    H   1.0     0.537850     0.044757     0.415441  Biso 1.000000     H
    H   1.0     0.100418     0.634398     0.467768  Biso 1.000000     H
    H   1.0     0.600416     0.634398     0.467762  Biso 1.000000     H
    H   1.0    -0.002837     0.659738     0.504336  Biso 1.000000     H
    H   1.0     0.497162     0.659741     0.504331  Biso 1.000000     H
    H   1.0     0.023943     0.486059     0.404031  Biso 1.000000     H
    H   1.0     0.523937     0.486060     0.404026  Biso 1.000000     H
    H   1.0     0.422390     0.513805     0.440451  Biso 1.000000     H
    H   1.0     0.922388     0.513801     0.440454  Biso 1.000000     H
    H   1.0     0.012639     0.396353     0.869902  Biso 1.000000     H
    H   1.0     0.512634     0.396355     0.869900  Biso 1.000000     H
    H   1.0     0.417781     0.340877     0.871360  Biso 1.000000     H
    H   1.0     0.917778     0.340880     0.871355  Biso 1.000000     H
    H   1.0     0.141886     0.107605     0.876170  Biso 1.000000     H
    H   1.0     0.641881     0.107607     0.876168  Biso 1.000000     H
    H   1.0     0.049107     0.048017     0.875096  Biso 1.000000     H
    H   1.0     0.549101     0.048020     0.875097  Biso 1.000000     H
    H   1.0     0.102218     0.950791     0.041454  Biso 1.000000     H
    H   1.0     0.602211     0.950791     0.041454  Biso 1.000000     H
    H   1.0     0.122963     0.843621     0.006542  Biso 1.000000     H
    H   1.0     0.622959     0.843622     0.006541  Biso 1.000000     H
    H   1.0     0.215116     0.091018     0.013854  Biso 1.000000     H
    H   1.0     0.715105     0.091022     0.013852  Biso 1.000000     H
    H   1.0     0.288018     0.044737     0.084399  Biso 1.000000     H
    H   1.0     0.788006     0.044742     0.084400  Biso 1.000000     H
    H   1.0     0.350164     0.634343     0.032399  Biso 1.000000     H
    H   1.0     0.850170     0.634335     0.032395  Biso 1.000000     H
    H   1.0     0.246883     0.659769    -0.003751  Biso 1.000000     H
    H   1.0     0.746897     0.659771    -0.003765  Biso 1.000000     H
    H   1.0     0.273795     0.485700     0.095891  Biso 1.000000     H
    H   1.0     0.773783     0.485697     0.095880  Biso 1.000000     H
    H   1.0     0.172252     0.513429     0.059579  Biso 1.000000     H
    H   1.0     0.672246     0.513439     0.059564  Biso 1.000000     H
    H   1.0     0.263085     0.396517     0.630465  Biso 1.000000     H
    H   1.0     0.763082     0.396517     0.630468  Biso 1.000000     H
    H   1.0     0.168307     0.340895     0.627996  Biso 1.000000     H
    H   1.0     0.668305     0.340893     0.627990  Biso 1.000000     H
    H   1.0     0.391527     0.107470     0.623737  Biso 1.000000     H
    H   1.0     0.891524     0.107469     0.623738  Biso 1.000000     H
    H   1.0     0.298686     0.047975     0.625092  Biso 1.000000     H
    H   1.0     0.798684     0.047973     0.625091  Biso 1.000000     H
    H   1.0     0.147858     0.049715     0.540916  Biso 1.000000     H
    H   1.0     0.647856     0.049722     0.540909  Biso 1.000000     H
    H   1.0     0.126576     0.156758     0.506144  Biso 1.000000     H
    H   1.0     0.626566     0.156764     0.506141  Biso 1.000000     H
    H   1.0     0.035095     0.909089     0.513851  Biso 1.000000     H
    H   1.0     0.535097     0.909091     0.513849  Biso 1.000000     H
    H   1.0     0.462134     0.955229     0.584522  Biso 1.000000     H
    H   1.0     0.962127     0.955230     0.584521  Biso 1.000000     H
    H   1.0     0.399556     0.365597     0.532183  Biso 1.000000     H
    H   1.0     0.899559     0.365591     0.532185  Biso 1.000000     H
    H   1.0     0.502808     0.340249     0.495613  Biso 1.000000     H
    H   1.0     0.000000     0.340248     0.495619  Biso 1.000000     H
    H   1.0     0.476045     0.513931     0.595922  Biso 1.000000     H
    H   1.0     0.976039     0.513928     0.595926  Biso 1.000000     H
    H   1.0     0.077593     0.486182     0.559501  Biso 1.000000     H
    H   1.0     0.577589     0.486179     0.559494  Biso 1.000000     H
    H   1.0     0.487356     0.603635     0.130075  Biso 1.000000     H
    H   1.0     0.987353     0.603634     0.130070  Biso 1.000000     H
    H   1.0     0.082214     0.659112     0.128589  Biso 1.000000     H
    H   1.0     0.582209     0.659115     0.128578  Biso 1.000000     H
    H   1.0     0.358110     0.892390     0.123799  Biso 1.000000     H
    H   1.0     0.858107     0.892390     0.123798  Biso 1.000000     H
    H   1.0     0.450889     0.951979     0.124875  Biso 1.000000     H
    H   1.0     0.950887     0.951977     0.124875  Biso 1.000000     H
    C   1.0     0.325326     0.120078     0.869497  Biso 1.000000     C
    C   1.0     0.825320     0.120080     0.869498  Biso 1.000000     C
    C   1.0     0.345789     0.093046     0.962044  Biso 1.000000     C
    C   1.0     0.845781     0.093053     0.962047  Biso 1.000000     C
    C   1.0     0.267911     0.048062     0.015690  Biso 1.000000     C
    C   1.0     0.767901     0.048067     0.015691  Biso 1.000000     C
    C   1.0     0.235469     0.332541     0.866028  Biso 1.000000     C
    C   1.0     0.735463     0.332543     0.866017  Biso 1.000000     C
    C   1.0     0.220469     0.376405     0.953207  Biso 1.000000     C
    C   1.0     0.720457     0.376408     0.953193  Biso 1.000000     C
    C   1.0     0.257232     0.478144     0.955850  Biso 1.000000     C
    C   1.0     0.757226     0.478144     0.955838  Biso 1.000000     C
    C   1.0     0.424807     0.879844     0.369759  Biso 1.000000     C
    C   1.0     0.924803     0.879845     0.369758  Biso 1.000000     C
    C   1.0     0.404332     0.906677     0.462380  Biso 1.000000     C
    C   1.0     0.904326     0.906681     0.462378  Biso 1.000000     C
    C   1.0     0.482188     0.951904     0.515769  Biso 1.000000     C
    C   1.0     0.982182     0.951904     0.515769  Biso 1.000000     C
    C   1.0     0.014526     0.667833     0.366672  Biso 1.000000     C
    C   1.0     0.514525     0.667832     0.366666  Biso 1.000000     C
    C   1.0     0.029783     0.623749     0.453635  Biso 1.000000     C
    C   1.0     0.529782     0.623750     0.453630  Biso 1.000000     C
    C   1.0     0.492882     0.522038     0.455946  Biso 1.000000     C
    C   1.0     0.992879     0.522036     0.455951  Biso 1.000000     C
    C   1.0     0.174668     0.879911     0.130471  Biso 1.000000     C
    C   1.0     0.674664     0.879912     0.130469  Biso 1.000000     C
    C   1.0     0.154202     0.906936     0.037923  Biso 1.000000     C
    C   1.0     0.654196     0.906938     0.037922  Biso 1.000000     C
    C   1.0     0.232079     0.951920     0.984274  Biso 1.000000     C
    C   1.0     0.732072     0.951925     0.984273  Biso 1.000000     C
    C   1.0     0.264532     0.667448     0.133911  Biso 1.000000     C
    C   1.0     0.764532     0.667451     0.133898  Biso 1.000000     C
    C   1.0     0.279544     0.623580     0.046738  Biso 1.000000     C
    C   1.0     0.779549     0.623579     0.046728  Biso 1.000000     C
    C   1.0     0.242777     0.521842     0.044097  Biso 1.000000     C
    C   1.0     0.742772     0.521843     0.044085  Biso 1.000000     C
    C   1.0     0.075172     0.120139     0.630208  Biso 1.000000     C
    C   1.0     0.575168     0.120140     0.630206  Biso 1.000000     C
    C   1.0     0.095653     0.093306     0.537589  Biso 1.000000     C
    C   1.0     0.595647     0.093310     0.537586  Biso 1.000000     C
    C   1.0     0.017800     0.048082     0.484194  Biso 1.000000     C
    C   1.0     0.517794     0.048082     0.484193  Biso 1.000000     C
    C   1.0     0.485447     0.332151     0.633276  Biso 1.000000     C
    C   1.0     0.985447     0.332151     0.633283  Biso 1.000000     C
    C   1.0     0.470191     0.376239     0.546315  Biso 1.000000     C
    C   1.0     0.970193     0.376237     0.546320  Biso 1.000000     C
    C   1.0     0.007101     0.477949     0.544006  Biso 1.000000     C
    C   1.0     0.507097     0.477950     0.544001  Biso 1.000000     C
    O   1.0     0.388977     0.148636     0.818675  Biso 1.000000     O
    O   1.0     0.888973     0.148636     0.818676  Biso 1.000000     O
    O   1.0     0.246392     0.117444     0.843670  Biso 1.000000     O
    O   1.0     0.746387     0.117445     0.843668  Biso 1.000000     O
    O   1.0     0.313676     0.332739     0.838103  Biso 1.000000     O
    O   1.0     0.813671     0.332742     0.838095  Biso 1.000000     O
    O   1.0     0.170103     0.296042     0.821520  Biso 1.000000     O
    O   1.0     0.670099     0.296038     0.821509  Biso 1.000000     O
    O   1.0     0.267970     0.663916     0.381402  Biso 1.000000     O
    O   1.0     0.767962     0.663916     0.381400  Biso 1.000000     O
    O   1.0     0.172661     0.890154     0.384882  Biso 1.000000     O
    O   1.0     0.672659     0.890151     0.384881  Biso 1.000000     O
    O   1.0     0.361175     0.851278     0.318984  Biso 1.000000     O
    O   1.0     0.861171     0.851277     0.318982  Biso 1.000000     O
    O   1.0     0.003762     0.882625     0.343860  Biso 1.000000     O
    O   1.0     0.503760     0.882625     0.343860  Biso 1.000000     O
    O   1.0     0.436178     0.667799     0.339418  Biso 1.000000     O
    O   1.0     0.936172     0.667799     0.339425  Biso 1.000000     O
    O   1.0     0.079664     0.704218     0.321651  Biso 1.000000     O
    O   1.0     0.579664     0.704217     0.321646  Biso 1.000000     O
    O   1.0     0.481368     0.335875     0.881324  Biso 1.000000     O
    O   1.0     0.981363     0.335875     0.881324  Biso 1.000000     O
    O   1.0     0.077659     0.109918     0.884889  Biso 1.000000     O
    O   1.0     0.577654     0.109921     0.884888  Biso 1.000000     O
    O   1.0     0.111020     0.851353     0.181297  Biso 1.000000     O
    O   1.0     0.611017     0.851354     0.181297  Biso 1.000000     O
    O   1.0     0.253603     0.882547     0.156297  Biso 1.000000     O
    O   1.0     0.753600     0.882549     0.156294  Biso 1.000000     O
    O   1.0     0.186321     0.667264     0.161817  Biso 1.000000     O
    O   1.0     0.686319     0.667272     0.161794  Biso 1.000000     O
    O   1.0     0.329892     0.703937     0.178435  Biso 1.000000     O
    O   1.0     0.829889     0.703932     0.178430  Biso 1.000000     O
    O   1.0     0.232008     0.336073     0.618569  Biso 1.000000     O
    O   1.0     0.732007     0.336074     0.618567  Biso 1.000000     O
    O   1.0     0.327312     0.109823     0.615088  Biso 1.000000     O
    O   1.0     0.827310     0.109822     0.615088  Biso 1.000000     O
    O   1.0     0.138800     0.148706     0.680989  Biso 1.000000     O
    O   1.0     0.638796     0.148705     0.680986  Biso 1.000000     O
    O   1.0     0.496214     0.117358     0.656104  Biso 1.000000     O
    O   1.0     0.996212     0.117359     0.656105  Biso 1.000000     O
    O   1.0     0.063801     0.332185     0.660529  Biso 1.000000     O
    O   1.0     0.563796     0.332181     0.660516  Biso 1.000000     O
    O   1.0     0.420310     0.295770     0.678301  Biso 1.000000     O
    O   1.0     0.920308     0.295764     0.678302  Biso 1.000000     O
    O   1.0     0.018625     0.664114     0.118645  Biso 1.000000     O
    O   1.0     0.518618     0.664115     0.118644  Biso 1.000000     O
    O   1.0     0.422338     0.890078     0.115084  Biso 1.000000     O
    O   1.0     0.922335     0.890076     0.115085  Biso 1.000000     O
   Ca   1.0     0.279920     0.221465     0.716941  Biso 1.000000    Ca
   Ca   1.0     0.779917     0.221463     0.716938  Biso 1.000000    Ca
   Ca   1.0     0.470019     0.778482     0.217261  Biso 1.000000    Ca
   Ca   1.0     0.970015     0.778479     0.217263  Biso 1.000000    Ca
   Ca   1.0     0.220060     0.778517     0.283016  Biso 1.000000    Ca
   Ca   1.0     0.720057     0.778516     0.283009  Biso 1.000000    Ca
   Ca   1.0     0.029970     0.221506     0.782699  Biso 1.000000    Ca
   Ca   1.0     0.529965     0.221507     0.782695  Biso 1.000000    Ca
