#======================================================================

# CRYSTAL DATA

#----------------------------------------------------------------------

data_VESTA_phase_1


_pd_phase_name                         MOF
_cell_length_a                         14.71300
_cell_length_b                         15.12700
_cell_length_c                         16.84100
_cell_angle_alpha                      89.99400
_cell_angle_beta                       98.78600
_cell_angle_gamma                      89.94200
_symmetry_space_group_name_H-M         "P 1"
_symmetry_Int_Tables_number            1

loop_
_symmetry_equiv_pos_as_xyz
   "x, y, z"

loop_
   _atom_site_label
   _atom_site_occupancy
   _atom_site_fract_x
   _atom_site_fract_y
   _atom_site_fract_z
   _atom_site_adp_type
   _atom_site_B_iso_or_equiv
   _atom_site_type_symbol
    H   1.0     0.293185     0.498775     0.142447  Biso 1.000000     H
    H   1.0     0.793197     0.498774     0.142444  Biso 1.000000     H
    H   1.0     0.375109     0.445234     0.094297  Biso 1.000000     H
    H   1.0     0.875118     0.445229     0.094292  Biso 1.000000     H
    H   1.0     0.333017     0.543341     0.969804  Biso 1.000000     H
    H   1.0     0.833026     0.543337     0.969800  Biso 1.000000     H
    H   1.0     0.252867     0.599602     0.018827  Biso 1.000000     H
    H   1.0     0.752878     0.599600     0.018824  Biso 1.000000     H
    H   1.0     0.205051     0.498458     0.357673  Biso 1.000000     H
    H   1.0     0.705060     0.498459     0.357673  Biso 1.000000     H
    H   1.0     0.124670     0.444207     0.406889  Biso 1.000000     H
    H   1.0     0.624676     0.444209     0.406886  Biso 1.000000     H
    H   1.0     0.333090     0.457879     0.468846  Biso 1.000000     H
    H   1.0     0.833095     0.457877     0.468849  Biso 1.000000     H
    H   1.0     0.254719     0.400445     0.518838  Biso 1.000000     H
    H   1.0     0.754719     0.400447     0.518838  Biso 1.000000     H
    H   1.0     0.351153     0.853776     0.623729  Biso 1.000000     H
    H   1.0     0.851161     0.853775     0.623729  Biso 1.000000     H
    H   1.0     0.253137     0.819321     0.590977  Biso 1.000000     H
    H   1.0     0.753144     0.819321     0.590978  Biso 1.000000     H
    H   1.0     0.148780     0.853531     0.876368  Biso 1.000000     H
    H   1.0     0.648787     0.853532     0.876368  Biso 1.000000     H
    H   1.0     0.247000     0.819516     0.909251  Biso 1.000000     H
    H   1.0     0.747007     0.819513     0.909250  Biso 1.000000     H
    H   1.0     0.456460     0.998588     0.857607  Biso 1.000000     H
    H   1.0     0.956461     0.998585     0.857614  Biso 1.000000     H
    H   1.0     0.374844     0.945130     0.906051  Biso 1.000000     H
    H   1.0     0.874847     0.945122     0.906057  Biso 1.000000     H
    H   1.0     0.416994     0.043326     0.030325  Biso 1.000000     H
    H   1.0     0.916996     0.043317     0.030333  Biso 1.000000     H
    H   1.0     0.496803     0.099568     0.981015  Biso 1.000000     H
    H   1.0     0.996802     0.099562     0.981021  Biso 1.000000     H
    H   1.0     0.044520     0.998693     0.642389  Biso 1.000000     H
    H   1.0     0.544524     0.998697     0.642394  Biso 1.000000     H
    H   1.0     0.125270     0.944392     0.593504  Biso 1.000000     H
    H   1.0     0.625276     0.944399     0.593508  Biso 1.000000     H
    H   1.0     0.416930     0.957863     0.531013  Biso 1.000000     H
    H   1.0     0.916939     0.957857     0.531010  Biso 1.000000     H
    H   1.0     0.495693     0.900422     0.481348  Biso 1.000000     H
    H   1.0     0.995702     0.900415     0.481344  Biso 1.000000     H
    H   1.0     0.398754     0.353545     0.376364  Biso 1.000000     H
    H   1.0     0.898762     0.353546     0.376363  Biso 1.000000     H
    H   1.0     0.496911     0.319354     0.409190  Biso 1.000000     H
    H   1.0     0.996918     0.319354     0.409191  Biso 1.000000     H
    H   1.0     0.101118     0.353725     0.123719  Biso 1.000000     H
    H   1.0     0.601126     0.353725     0.123718  Biso 1.000000     H
    H   1.0     0.003041     0.319430     0.090920  Biso 1.000000     H
    H   1.0     0.503048     0.319431     0.090920  Biso 1.000000     H
    H   1.0     0.206843     0.501275     0.857567  Biso 1.000000     H
    H   1.0     0.706850     0.501274     0.857564  Biso 1.000000     H
    H   1.0     0.124915     0.554809     0.905719  Biso 1.000000     H
    H   1.0     0.624924     0.554808     0.905718  Biso 1.000000     H
    H   1.0     0.167009     0.456710     0.030210  Biso 1.000000     H
    H   1.0     0.667017     0.456710     0.030209  Biso 1.000000     H
    H   1.0     0.247159     0.400449     0.981187  Biso 1.000000     H
    H   1.0     0.747165     0.400447     0.981185  Biso 1.000000     H
    H   1.0     0.294953     0.501593     0.642326  Biso 1.000000     H
    H   1.0     0.794953     0.501594     0.642327  Biso 1.000000     H
    H   1.0     0.375336     0.555846     0.593115  Biso 1.000000     H
    H   1.0     0.875340     0.555843     0.593117  Biso 1.000000     H
    H   1.0     0.166916     0.542185     0.531156  Biso 1.000000     H
    H   1.0     0.666921     0.542190     0.531154  Biso 1.000000     H
    H   1.0     0.245290     0.599619     0.481167  Biso 1.000000     H
    H   1.0     0.745299     0.599620     0.481166  Biso 1.000000     H
    H   1.0     0.148860     0.146273     0.376283  Biso 1.000000     H
    H   1.0     0.648867     0.146275     0.376283  Biso 1.000000     H
    H   1.0     0.246880     0.180710     0.409043  Biso 1.000000     H
    H   1.0     0.746888     0.180709     0.409044  Biso 1.000000     H
    H   1.0     0.351234     0.146518     0.123648  Biso 1.000000     H
    H   1.0     0.851241     0.146518     0.123649  Biso 1.000000     H
    H   1.0     0.253008     0.180512     0.090754  Biso 1.000000     H
    H   1.0     0.753016     0.180513     0.090754  Biso 1.000000     H
    H   1.0     0.043537     0.001460     0.142401  Biso 1.000000     H
    H   1.0     0.543548     0.001463     0.142394  Biso 1.000000     H
    H   1.0     0.125156     0.054914     0.093956  Biso 1.000000     H
    H   1.0     0.625168     0.054920     0.093953  Biso 1.000000     H
    H   1.0     0.083006     0.956732     0.969684  Biso 1.000000     H
    H   1.0     0.583018     0.956737     0.969678  Biso 1.000000     H
    H   1.0     0.003200     0.900488     0.018995  Biso 1.000000     H
    H   1.0     0.503211     0.900494     0.018990  Biso 1.000000     H
    H   1.0     0.455517     0.001352     0.357614  Biso 1.000000     H
    H   1.0     0.955524     0.001349     0.357608  Biso 1.000000     H
    H   1.0     0.374760     0.055638     0.406502  Biso 1.000000     H
    H   1.0     0.874768     0.055632     0.406500  Biso 1.000000     H
    H   1.0     0.083101     0.042175     0.468990  Biso 1.000000     H
    H   1.0     0.583107     0.042183     0.468995  Biso 1.000000     H
    H   1.0     0.004341     0.099617     0.518658  Biso 1.000000     H
    H   1.0     0.504344     0.099624     0.518662  Biso 1.000000     H
    H   1.0     0.101260     0.646504     0.623652  Biso 1.000000     H
    H   1.0     0.601267     0.646506     0.623652  Biso 1.000000     H
    H   1.0     0.003099     0.680674     0.590815  Biso 1.000000     H
    H   1.0     0.503106     0.680675     0.590815  Biso 1.000000     H
    H   1.0     0.398893     0.646325     0.876294  Biso 1.000000     H
    H   1.0     0.898901     0.646325     0.876294  Biso 1.000000     H
    H   1.0     0.496975     0.680601     0.909099  Biso 1.000000     H
    H   1.0     0.996982     0.680601     0.909099  Biso 1.000000     H
    C   1.0     0.285424     0.359520     0.145524  Biso 1.000000     C
    C   1.0     0.785432     0.359519     0.145523  Biso 1.000000     C
    C   1.0     0.301870     0.443733     0.101147  Biso 1.000000     C
    C   1.0     0.801880     0.443730     0.101144  Biso 1.000000     C
    C   1.0     0.239451     0.457122     0.020813  Biso 1.000000     C
    C   1.0     0.739459     0.457121     0.020811  Biso 1.000000     C
    C   1.0     0.214417     0.359265     0.354771  Biso 1.000000     C
    C   1.0     0.714424     0.359267     0.354770  Biso 1.000000     C
    C   1.0     0.197694     0.443348     0.399253  Biso 1.000000     C
    C   1.0     0.697700     0.443350     0.399252  Biso 1.000000     C
    C   1.0     0.260920     0.457320     0.479042  Biso 1.000000     C
    C   1.0     0.760924     0.457321     0.479043  Biso 1.000000     C
    C   1.0     0.464525     0.859338     0.854729  Biso 1.000000     C
    C   1.0     0.964532     0.859336     0.854733  Biso 1.000000     C
    C   1.0     0.448039     0.943608     0.899037  Biso 1.000000     C
    C   1.0     0.948042     0.943603     0.899043  Biso 1.000000     C
    C   1.0     0.010617     0.957115     0.979243  Biso 1.000000     C
    C   1.0     0.510629     0.957121     0.979237  Biso 1.000000     C
    C   1.0     0.035523     0.859493     0.645497  Biso 1.000000     C
    C   1.0     0.535530     0.859496     0.645498  Biso 1.000000     C
    C   1.0     0.052191     0.943524     0.600947  Biso 1.000000     C
    C   1.0     0.552197     0.943529     0.600951  Biso 1.000000     C
    C   1.0     0.489166     0.957351     0.521006  Biso 1.000000     C
    C   1.0     0.989175     0.957345     0.521002  Biso 1.000000     C
    C   1.0     0.214592     0.640530     0.854489  Biso 1.000000     C
    C   1.0     0.714600     0.640529     0.854488  Biso 1.000000     C
    C   1.0     0.198154     0.556316     0.898868  Biso 1.000000     C
    C   1.0     0.698162     0.556314     0.898866  Biso 1.000000     C
    C   1.0     0.260575     0.542929     0.979201  Biso 1.000000     C
    C   1.0     0.760584     0.542926     0.979199  Biso 1.000000     C
    C   1.0     0.285595     0.640784     0.645241  Biso 1.000000     C
    C   1.0     0.785601     0.640786     0.645241  Biso 1.000000     C
    C   1.0     0.302313     0.556706     0.600751  Biso 1.000000     C
    C   1.0     0.802316     0.556707     0.600751  Biso 1.000000     C
    C   1.0     0.239086     0.542742     0.520960  Biso 1.000000     C
    C   1.0     0.739091     0.542744     0.520960  Biso 1.000000     C
    C   1.0     0.035484     0.140709     0.145285  Biso 1.000000     C
    C   1.0     0.535493     0.140712     0.145282  Biso 1.000000     C
    C   1.0     0.051962     0.056441     0.100972  Biso 1.000000     C
    C   1.0     0.551973     0.056445     0.100968  Biso 1.000000     C
    C   1.0     0.489382     0.042940     0.020766  Biso 1.000000     C
    C   1.0     0.989384     0.042934     0.020773  Biso 1.000000     C
    C   1.0     0.464495     0.140553     0.354513  Biso 1.000000     C
    C   1.0     0.964502     0.140551     0.354513  Biso 1.000000     C
    C   1.0     0.447839     0.056516     0.399059  Biso 1.000000     C
    C   1.0     0.947847     0.056511     0.399055  Biso 1.000000     C
    C   1.0     0.010866     0.042689     0.478999  Biso 1.000000     C
    C   1.0     0.510871     0.042695     0.479003  Biso 1.000000     C
    O   1.0     0.210825     0.316043     0.127557  Biso 1.000000     O
    O   1.0     0.710833     0.316042     0.127557  Biso 1.000000     O
    O   1.0     0.347541     0.333322     0.202332  Biso 1.000000     O
    O   1.0     0.847548     0.333322     0.202331  Biso 1.000000     O
    O   1.0     0.152386     0.333205     0.297891  Biso 1.000000     O
    O   1.0     0.652393     0.333206     0.297891  Biso 1.000000     O
    O   1.0     0.289090     0.315747     0.372759  Biso 1.000000     O
    O   1.0     0.789097     0.315749     0.372758  Biso 1.000000     O
    O   1.0     0.284775     0.862900     0.628176  Biso 1.000000     O
    O   1.0     0.784783     0.862900     0.628176  Biso 1.000000     O
    O   1.0     0.215105     0.862855     0.871882  Biso 1.000000     O
    O   1.0     0.715113     0.862854     0.871883  Biso 1.000000     O
    O   1.0     0.039138     0.815740     0.872744  Biso 1.000000     O
    O   1.0     0.539146     0.815742     0.872740  Biso 1.000000     O
    O   1.0     0.402413     0.833242     0.797935  Biso 1.000000     O
    O   1.0     0.902421     0.833241     0.797936  Biso 1.000000     O
    O   1.0     0.097562     0.833330     0.702386  Biso 1.000000     O
    O   1.0     0.597570     0.833330     0.702385  Biso 1.000000     O
    O   1.0     0.460881     0.816092     0.627555  Biso 1.000000     O
    O   1.0     0.960889     0.816089     0.627555  Biso 1.000000     O
    O   1.0     0.465088     0.362795     0.371883  Biso 1.000000     O
    O   1.0     0.965096     0.362795     0.371883  Biso 1.000000     O
    O   1.0     0.034749     0.362918     0.128172  Biso 1.000000     O
    O   1.0     0.534757     0.362919     0.128172  Biso 1.000000     O
    O   1.0     0.289185     0.684016     0.872457  Biso 1.000000     O
    O   1.0     0.789192     0.684016     0.872457  Biso 1.000000     O
    O   1.0     0.152473     0.666719     0.797681  Biso 1.000000     O
    O   1.0     0.652480     0.666719     0.797679  Biso 1.000000     O
    O   1.0     0.347627     0.666835     0.702123  Biso 1.000000     O
    O   1.0     0.847634     0.666835     0.702123  Biso 1.000000     O
    O   1.0     0.210924     0.684307     0.627258  Biso 1.000000     O
    O   1.0     0.710931     0.684310     0.627257  Biso 1.000000     O
    O   1.0     0.215236     0.137140     0.371838  Biso 1.000000     O
    O   1.0     0.715243     0.137141     0.371838  Biso 1.000000     O
    O   1.0     0.284910     0.137185     0.128132  Biso 1.000000     O
    O   1.0     0.784917     0.137185     0.128132  Biso 1.000000     O
    O   1.0     0.460875     0.184313     0.127275  Biso 1.000000     O
    O   1.0     0.960882     0.184311     0.127279  Biso 1.000000     O
    O   1.0     0.097600     0.166798     0.202079  Biso 1.000000     O
    O   1.0     0.597607     0.166799     0.202078  Biso 1.000000     O
    O   1.0     0.402452     0.166710     0.297626  Biso 1.000000     O
    O   1.0     0.902458     0.166711     0.297627  Biso 1.000000     O
    O   1.0     0.039130     0.183964     0.372458  Biso 1.000000     O
    O   1.0     0.539138     0.183967     0.372458  Biso 1.000000     O
    O   1.0     0.034926     0.637245     0.628132  Biso 1.000000     O
    O   1.0     0.534934     0.637246     0.628131  Biso 1.000000     O
    O   1.0     0.465261     0.637122     0.871841  Biso 1.000000     O
    O   1.0     0.965268     0.637122     0.871842  Biso 1.000000     O
   Ca   1.0     0.249991     0.212122     0.249965  Biso 1.000000    Ca
   Ca   1.0     0.749998     0.212123     0.249965  Biso 1.000000    Ca
   Ca   1.0     0.500028     0.712141     0.750012  Biso 1.000000    Ca
   Ca   1.0     0.000000     0.712140     0.750013  Biso 1.000000    Ca
   Ca   1.0     0.250022     0.787925     0.750048  Biso 1.000000    Ca
   Ca   1.0     0.750030     0.787926     0.750048  Biso 1.000000    Ca
   Ca   1.0    -0.000015     0.287907     0.250002  Biso 1.000000    Ca
   Ca   1.0     0.499992     0.287907     0.250001  Biso 1.000000    Ca
