#======================================================================

# CRYSTAL DATA

#----------------------------------------------------------------------

data_VESTA_phase_1


_pd_phase_name                         MOF
_cell_length_a                         20.27700
_cell_length_b                         13.97100
_cell_length_c                         13.98300
_cell_angle_alpha                      89.99600
_cell_angle_beta                       90.02300
_cell_angle_gamma                      104.58600
_symmetry_space_group_name_H-M         "P 1"
_symmetry_Int_Tables_number            1

loop_
_symmetry_equiv_pos_as_xyz
   "x, y, z"

loop_
   _atom_site_label
   _atom_site_occupancy
   _atom_site_fract_x
   _atom_site_fract_y
   _atom_site_fract_z
   _atom_site_adp_type
   _atom_site_B_iso_or_equiv
   _atom_site_type_symbol
    H   1.0     0.334661     0.260259     0.680815  Biso 1.000000     H
    H   1.0     0.834653     0.260258     0.680813  Biso 1.000000     H
    H   1.0     0.121432     0.232123     0.737042  Biso 1.000000     H
    H   1.0     0.621424     0.232120     0.737042  Biso 1.000000     H
    H   1.0     0.231033     0.064812     0.901668  Biso 1.000000     H
    H   1.0     0.731027     0.064808     0.901665  Biso 1.000000     H
    H   1.0     0.415135     0.239700     0.180835  Biso 1.000000     H
    H   1.0     0.915128     0.239699     0.180836  Biso 1.000000     H
    H   1.0     0.128459     0.268121     0.236890  Biso 1.000000     H
    H   1.0     0.628452     0.268123     0.236885  Biso 1.000000     H
    H   1.0     0.018989     0.435696     0.401243  Biso 1.000000     H
    H   1.0     0.518982     0.435695     0.401242  Biso 1.000000     H
    H   1.0     0.165330     0.739744     0.319211  Biso 1.000000     H
    H   1.0     0.665322     0.739743     0.319210  Biso 1.000000     H
    H   1.0     0.378559     0.767878     0.262979  Biso 1.000000     H
    H   1.0     0.878550     0.767876     0.262979  Biso 1.000000     H
    H   1.0     0.268955     0.935187     0.098353  Biso 1.000000     H
    H   1.0     0.768947     0.935186     0.098352  Biso 1.000000     H
    H   1.0     0.084852     0.760298     0.819192  Biso 1.000000     H
    H   1.0     0.584844     0.760299     0.819190  Biso 1.000000     H
    H   1.0     0.371526     0.731871     0.763138  Biso 1.000000     H
    H   1.0     0.871520     0.731871     0.763141  Biso 1.000000     H
    H   1.0     0.480999     0.564298     0.598785  Biso 1.000000     H
    H   1.0     0.980991     0.564298     0.598787  Biso 1.000000     H
    H   1.0     0.100436     0.360585     0.656582  Biso 1.000000     H
    H   1.0     0.600428     0.360585     0.656578  Biso 1.000000     H
    H   1.0     0.061756     0.449293     0.639633  Biso 1.000000     H
    H   1.0     0.561749     0.449294     0.639632  Biso 1.000000     H
    H   1.0    -0.013341     0.396489     0.775477  Biso 1.000000     H
    H   1.0     0.486653     0.396487     0.775476  Biso 1.000000     H
    H   1.0     0.075564     0.424322     0.805547  Biso 1.000000     H
    H   1.0     0.575558     0.424317     0.805546  Biso 1.000000     H
    H   1.0     0.026140     0.297866     0.795236  Biso 1.000000     H
    H   1.0     0.526133     0.297862     0.795232  Biso 1.000000     H
    H   1.0     0.488399     0.233563     0.633344  Biso 1.000000     H
    H   1.0     0.988394     0.233561     0.633351  Biso 1.000000     H
    H   1.0     0.521746     0.309018     0.530732  Biso 1.000000     H
    H   1.0     0.000000     0.309012     0.530736  Biso 1.000000     H
    H   1.0     0.454388     0.334943     0.600653  Biso 1.000000     H
    H   1.0     0.954382     0.334939     0.600655  Biso 1.000000     H
    H   1.0     0.149519     0.139499     0.156483  Biso 1.000000     H
    H   1.0     0.649510     0.139499     0.156484  Biso 1.000000     H
    H   1.0     0.188184     0.050699     0.139899  Biso 1.000000     H
    H   1.0     0.688176     0.050700     0.139901  Biso 1.000000     H
    H   1.0     0.263033     0.103750     0.276126  Biso 1.000000     H
    H   1.0     0.763023     0.103749     0.276129  Biso 1.000000     H
    H   1.0     0.174054     0.075886     0.305695  Biso 1.000000     H
    H   1.0     0.674044     0.075886     0.305697  Biso 1.000000     H
    H   1.0     0.223455     0.202343     0.295395  Biso 1.000000     H
    H   1.0     0.723446     0.202343     0.295397  Biso 1.000000     H
    H   1.0     0.261821     0.266294     0.133770  Biso 1.000000     H
    H   1.0     0.761811     0.266294     0.133773  Biso 1.000000     H
    H   1.0     0.228423     0.191021     0.031029  Biso 1.000000     H
    H   1.0     0.728414     0.191021     0.031031  Biso 1.000000     H
    H   1.0     0.295587     0.164687     0.101145  Biso 1.000000     H
    H   1.0     0.795579     0.164689     0.101148  Biso 1.000000     H
    H   1.0     0.399559     0.639420     0.343454  Biso 1.000000     H
    H   1.0     0.899552     0.639420     0.343452  Biso 1.000000     H
    H   1.0     0.438234     0.550706     0.360395  Biso 1.000000     H
    H   1.0     0.938226     0.550705     0.360394  Biso 1.000000     H
    H   1.0     0.513328     0.603502     0.224552  Biso 1.000000     H
    H   1.0     0.000000     0.603501     0.224551  Biso 1.000000     H
    H   1.0     0.424422     0.575685     0.194486  Biso 1.000000     H
    H   1.0     0.924415     0.575684     0.194483  Biso 1.000000     H
    H   1.0     0.473856     0.702136     0.204800  Biso 1.000000     H
    H   1.0     0.973849     0.702136     0.204798  Biso 1.000000     H
    H   1.0     0.011605     0.766429     0.366682  Biso 1.000000     H
    H   1.0     0.511598     0.766430     0.366683  Biso 1.000000     H
    H   1.0    -0.021749     0.690980     0.469297  Biso 1.000000     H
    H   1.0     0.478245     0.690983     0.469298  Biso 1.000000     H
    H   1.0     0.045605     0.665038     0.399376  Biso 1.000000     H
    H   1.0     0.545599     0.665041     0.399378  Biso 1.000000     H
    H   1.0     0.350473     0.860503     0.843541  Biso 1.000000     H
    H   1.0     0.850467     0.860503     0.843539  Biso 1.000000     H
    H   1.0     0.311803     0.949297     0.860122  Biso 1.000000     H
    H   1.0     0.811799     0.949300     0.860121  Biso 1.000000     H
    H   1.0     0.236956     0.896244     0.723897  Biso 1.000000     H
    H   1.0     0.736950     0.896245     0.723895  Biso 1.000000     H
    H   1.0     0.325936     0.924113     0.694329  Biso 1.000000     H
    H   1.0     0.825930     0.924112     0.694326  Biso 1.000000     H
    H   1.0     0.276538     0.797655     0.704629  Biso 1.000000     H
    H   1.0     0.776531     0.797655     0.704627  Biso 1.000000     H
    H   1.0     0.238173     0.733702     0.866251  Biso 1.000000     H
    H   1.0     0.738164     0.733707     0.866253  Biso 1.000000     H
    H   1.0     0.271569     0.808975     0.968994  Biso 1.000000     H
    H   1.0     0.771563     0.808981     0.968993  Biso 1.000000     H
    H   1.0     0.204402     0.835305     0.898879  Biso 1.000000     H
    H   1.0     0.704397     0.835313     0.898878  Biso 1.000000     H
    C   1.0     0.356637     0.136654     0.819674  Biso 1.000000     C
    C   1.0     0.856632     0.136673     0.819692  Biso 1.000000     C
    C   1.0     0.229512     0.332275     0.624348  Biso 1.000000     C
    C   1.0     0.729515     0.332286     0.624356  Biso 1.000000     C
    C   1.0     0.106400     0.096851     0.880207  Biso 1.000000     C
    C   1.0     0.606395     0.096863     0.880215  Biso 1.000000     C
    C   1.0     0.290260     0.159805     0.793863  Biso 1.000000     C
    C   1.0     0.790251     0.159792     0.793844  Biso 1.000000     C
    C   1.0     0.288463     0.227509     0.720747  Biso 1.000000     C
    C   1.0     0.788452     0.227503     0.720736  Biso 1.000000     C
    C   1.0     0.228225     0.254978     0.699929  Biso 1.000000     C
    C   1.0     0.728212     0.254974     0.699928  Biso 1.000000     C
    C   1.0     0.169012     0.212446     0.751678  Biso 1.000000     C
    C   1.0     0.669000     0.212434     0.751676  Biso 1.000000     C
    C   1.0     0.169622     0.142794     0.823324  Biso 1.000000     C
    C   1.0     0.669614     0.142777     0.823316  Biso 1.000000     C
    C   1.0     0.230509     0.117253     0.844357  Biso 1.000000     C
    C   1.0     0.730504     0.117244     0.844349  Biso 1.000000     C
    C   1.0     0.393264     0.363415     0.319608  Biso 1.000000     C
    C   1.0     0.893257     0.363410     0.319613  Biso 1.000000     C
    C   1.0     0.020324     0.167696     0.124401  Biso 1.000000     C
    C   1.0     0.520320     0.167702     0.124394  Biso 1.000000     C
    C   1.0     0.143588     0.403582     0.379867  Biso 1.000000     C
    C   1.0     0.643581     0.403586     0.379863  Biso 1.000000     C
    C   1.0     0.459647     0.340421     0.293660  Biso 1.000000     C
    C   1.0     0.959641     0.340425     0.293655  Biso 1.000000     C
    C   1.0     0.461385     0.272590     0.220648  Biso 1.000000     C
    C   1.0     0.961379     0.272590     0.220646  Biso 1.000000     C
    C   1.0     0.021626     0.245136     0.199840  Biso 1.000000     C
    C   1.0     0.521618     0.245136     0.199837  Biso 1.000000     C
    C   1.0     0.080891     0.287825     0.251477  Biso 1.000000     C
    C   1.0     0.580883     0.287823     0.251475  Biso 1.000000     C
    C   1.0     0.080341     0.357626     0.322983  Biso 1.000000     C
    C   1.0     0.580334     0.357624     0.322982  Biso 1.000000     C
    C   1.0     0.019461     0.383154     0.344013  Biso 1.000000     C
    C   1.0     0.519455     0.383153     0.344013  Biso 1.000000     C
    C   1.0     0.143350     0.863321     0.180323  Biso 1.000000     C
    C   1.0     0.643343     0.863328     0.180331  Biso 1.000000     C
    C   1.0     0.270465     0.667711     0.375664  Biso 1.000000     C
    C   1.0     0.770461     0.667715     0.375668  Biso 1.000000     C
    C   1.0     0.393586     0.903125     0.119799  Biso 1.000000     C
    C   1.0     0.893579     0.903131     0.119804  Biso 1.000000     C
    C   1.0     0.209732     0.840212     0.206184  Biso 1.000000     C
    C   1.0     0.709724     0.840207     0.206177  Biso 1.000000     C
    C   1.0     0.211532     0.772498     0.279289  Biso 1.000000     C
    C   1.0     0.711522     0.772496     0.279285  Biso 1.000000     C
    C   1.0     0.271772     0.745027     0.300095  Biso 1.000000     C
    C   1.0     0.771762     0.745024     0.300094  Biso 1.000000     C
    C   1.0     0.330983     0.787568     0.248346  Biso 1.000000     C
    C   1.0     0.830973     0.787563     0.248346  Biso 1.000000     C
    C   1.0     0.330368     0.857223     0.176705  Biso 1.000000     C
    C   1.0     0.830360     0.857216     0.176702  Biso 1.000000     C
    C   1.0     0.269478     0.882756     0.155673  Biso 1.000000     C
    C   1.0     0.769471     0.882752     0.155670  Biso 1.000000     C
    C   1.0     0.106726     0.636610     0.680390  Biso 1.000000     C
    C   1.0     0.606719     0.636612     0.680388  Biso 1.000000     C
    C   1.0     0.479676     0.832316     0.875613  Biso 1.000000     C
    C   1.0     0.979669     0.832315     0.875616  Biso 1.000000     C
    C   1.0     0.356403     0.596435     0.620143  Biso 1.000000     C
    C   1.0     0.856395     0.596433     0.620147  Biso 1.000000     C
    C   1.0     0.040337     0.659557     0.706393  Biso 1.000000     C
    C   1.0     0.540329     0.659557     0.706393  Biso 1.000000     C
    C   1.0     0.038597     0.727401     0.779393  Biso 1.000000     C
    C   1.0     0.538589     0.727403     0.779391  Biso 1.000000     C
    C   1.0     0.478353     0.754855     0.800187  Biso 1.000000     C
    C   1.0     0.978347     0.754855     0.800190  Biso 1.000000     C
    C   1.0     0.419090     0.712156     0.748552  Biso 1.000000     C
    C   1.0     0.919084     0.712157     0.748554  Biso 1.000000     C
    C   1.0     0.419646     0.642351     0.677052  Biso 1.000000     C
    C   1.0     0.919639     0.642351     0.677054  Biso 1.000000     C
    C   1.0     0.480528     0.616831     0.656023  Biso 1.000000     C
    C   1.0     0.980520     0.616832     0.656024  Biso 1.000000     C
    C   1.0     0.034036     0.373172     0.767480  Biso 1.000000     C
    C   1.0     0.534029     0.373169     0.767477  Biso 1.000000     C
    C   1.0     0.500718     0.308142     0.602873  Biso 1.000000     C
    C   1.0     0.000000     0.308139     0.602877  Biso 1.000000     C
    C   1.0     0.215655     0.127001     0.267768  Biso 1.000000     C
    C   1.0     0.715646     0.127001     0.267771  Biso 1.000000     C
    C   1.0     0.249359     0.191742     0.103233  Biso 1.000000     C
    C   1.0     0.749350     0.191742     0.103236  Biso 1.000000     C
    C   1.0     0.465955     0.626827     0.232552  Biso 1.000000     C
    C   1.0     0.965948     0.626827     0.232551  Biso 1.000000     C
    C   1.0    -0.000721     0.691851     0.397156  Biso 1.000000     C
    C   1.0     0.499273     0.691853     0.397157  Biso 1.000000     C
    C   1.0     0.284335     0.872997     0.732255  Biso 1.000000     C
    C   1.0     0.784329     0.872997     0.732253  Biso 1.000000     C
    C   1.0     0.250632     0.808253     0.896791  Biso 1.000000     C
    C   1.0     0.750626     0.808259     0.896789  Biso 1.000000     C
    N   1.0     0.052262     0.375210     0.664203  Biso 1.000000     N
    N   1.0     0.552255     0.375210     0.664200  Biso 1.000000     N
    N   1.0     0.197650     0.124810     0.164383  Biso 1.000000     N
    N   1.0     0.697642     0.124810     0.164385  Biso 1.000000     N
    N   1.0     0.447731     0.624792     0.335831  Biso 1.000000     N
    N   1.0     0.947724     0.624791     0.335829  Biso 1.000000     N
    N   1.0     0.302339     0.875186     0.835640  Biso 1.000000     N
    N   1.0     0.802334     0.875190     0.835638  Biso 1.000000     N
    O   1.0     0.352118     0.066337     0.883359  Biso 1.000000     O
    O   1.0     0.852111     0.066330     0.883350  Biso 1.000000     O
    O   1.0     0.411236     0.183474     0.783558  Biso 1.000000     O
    O   1.0     0.911230     0.183477     0.783562  Biso 1.000000     O
    O   1.0     0.272633     0.337585     0.557890  Biso 1.000000     O
    O   1.0     0.772627     0.337586     0.557887  Biso 1.000000     O
    O   1.0     0.188348     0.387866     0.634157  Biso 1.000000     O
    O   1.0     0.688341     0.387860     0.634159  Biso 1.000000     O
    O   1.0     0.050372     0.112434     0.850234  Biso 1.000000     O
    O   1.0     0.550366     0.112433     0.850232  Biso 1.000000     O
    O   1.0     0.114495     0.047285     0.953056  Biso 1.000000     O
    O   1.0     0.614488     0.047280     0.953053  Biso 1.000000     O
    O   1.0     0.397791     0.433662     0.383360  Biso 1.000000     O
    O   1.0     0.897784     0.433664     0.383357  Biso 1.000000     O
    O   1.0     0.338649     0.316507     0.283549  Biso 1.000000     O
    O   1.0     0.838641     0.316506     0.283550  Biso 1.000000     O
    O   1.0     0.477164     0.162249     0.057899  Biso 1.000000     O
    O   1.0     0.977160     0.162249     0.057900  Biso 1.000000     O
    O   1.0     0.061487     0.112132     0.134399  Biso 1.000000     O
    O   1.0     0.561479     0.112133     0.134393  Biso 1.000000     O
    O   1.0     0.199555     0.387596     0.350199  Biso 1.000000     O
    O   1.0     0.699548     0.387595     0.350199  Biso 1.000000     O
    O   1.0     0.135560     0.453562     0.452425  Biso 1.000000     O
    O   1.0     0.635553     0.453562     0.452424  Biso 1.000000     O
    O   1.0     0.147872     0.933673     0.116676  Biso 1.000000     O
    O   1.0     0.647864     0.933670     0.116673  Biso 1.000000     O
    O   1.0     0.088753     0.816524     0.216459  Biso 1.000000     O
    O   1.0     0.588745     0.816524     0.216461  Biso 1.000000     O
    O   1.0     0.227354     0.662415     0.442134  Biso 1.000000     O
    O   1.0     0.727347     0.662416     0.442134  Biso 1.000000     O
    O   1.0     0.311643     0.612143     0.365862  Biso 1.000000     O
    O   1.0     0.811636     0.612141     0.365864  Biso 1.000000     O
    O   1.0     0.449618     0.887571     0.149792  Biso 1.000000     O
    O   1.0     0.949610     0.887569     0.149791  Biso 1.000000     O
    O   1.0     0.385494     0.952703     0.046957  Biso 1.000000     O
    O   1.0     0.885486     0.952706     0.046959  Biso 1.000000     O
    O   1.0     0.102195     0.566326     0.616677  Biso 1.000000     O
    O   1.0     0.602188     0.566325     0.616678  Biso 1.000000     O
    O   1.0     0.161340     0.683496     0.716468  Biso 1.000000     O
    O   1.0     0.661333     0.683497     0.716467  Biso 1.000000     O
    O   1.0     0.022824     0.837751     0.942128  Biso 1.000000     O
    O   1.0     0.522814     0.837752     0.942127  Biso 1.000000     O
    O   1.0     0.438503     0.887864     0.865612  Biso 1.000000     O
    O   1.0     0.938496     0.887862     0.865619  Biso 1.000000     O
    O   1.0     0.300433     0.612401     0.649827  Biso 1.000000     O
    O   1.0     0.800426     0.612403     0.649828  Biso 1.000000     O
    O   1.0     0.364426     0.546438     0.547595  Biso 1.000000     O
    O   1.0     0.864419     0.546437     0.547598  Biso 1.000000     O
   Cd   1.0     0.454595     0.052460     0.933072  Biso 1.000000    Cd
   Cd   1.0     0.954588     0.052460     0.933075  Biso 1.000000    Cd
   Cd   1.0     0.295341     0.447432     0.433133  Biso 1.000000    Cd
   Cd   1.0     0.795335     0.447433     0.433134  Biso 1.000000    Cd
   Cd   1.0     0.045394     0.947537     0.066947  Biso 1.000000    Cd
   Cd   1.0     0.545387     0.947538     0.066945  Biso 1.000000    Cd
   Cd   1.0     0.204646     0.552576     0.566884  Biso 1.000000    Cd
   Cd   1.0     0.704640     0.552576     0.566885  Biso 1.000000    Cd
