#======================================================================

# CRYSTAL DATA

#----------------------------------------------------------------------

data_VESTA_phase_1


_pd_phase_name                         MOF
_cell_length_a                         13.84100
_cell_length_b                         13.84100
_cell_length_c                         13.84100
_cell_angle_alpha                      108.00700
_cell_angle_beta                       108.00300
_cell_angle_gamma                      108.00200
_symmetry_space_group_name_H-M         "P 1"
_symmetry_Int_Tables_number            1

loop_
_symmetry_equiv_pos_as_xyz
   "x, y, z"

loop_
   _atom_site_label
   _atom_site_occupancy
   _atom_site_fract_x
   _atom_site_fract_y
   _atom_site_fract_z
   _atom_site_adp_type
   _atom_site_B_iso_or_equiv
   _atom_site_type_symbol
    H   1.0     0.712597     0.485307     0.413621  Biso 1.000000     H
    H   1.0     0.550121     0.128938     0.242817  Biso 1.000000     H
    H   1.0     0.701106     0.090455     0.360557  Biso 1.000000     H
    H   1.0     0.836703     0.195653     0.397503  Biso 1.000000     H
    H   1.0     0.016761     0.459961     0.862234  Biso 1.000000     H
    H   1.0     0.008797     0.393248     0.009368  Biso 1.000000     H
    H   1.0     0.883941     0.193740     0.954085  Biso 1.000000     H
    H   1.0     0.762617     0.053939     0.750787  Biso 1.000000     H
    H   1.0     0.413598     0.712637     0.485315  Biso 1.000000     H
    H   1.0     0.242814     0.550133     0.128942  Biso 1.000000     H
    H   1.0     0.360531     0.701132     0.090459  Biso 1.000000     H
    H   1.0     0.397461     0.836731     0.195659  Biso 1.000000     H
    H   1.0     0.862172     0.016781     0.459973  Biso 1.000000     H
    H   1.0     0.009378     0.008821     0.393268  Biso 1.000000     H
    H   1.0     0.954048     0.883992     0.193755  Biso 1.000000     H
    H   1.0     0.750760     0.762648     0.053952  Biso 1.000000     H
    H   1.0     0.485302     0.413632     0.712660  Biso 1.000000     H
    H   1.0     0.128941     0.242824     0.550155  Biso 1.000000     H
    H   1.0     0.090446     0.360552     0.701156  Biso 1.000000     H
    H   1.0     0.195637     0.397494     0.836757  Biso 1.000000     H
    H   1.0     0.459939     0.862210     0.016775  Biso 1.000000     H
    H   1.0     0.393233     0.009373     0.008807  Biso 1.000000     H
    H   1.0     0.193730     0.954082     0.883997  Biso 1.000000     H
    H   1.0     0.053936     0.750787     0.762653  Biso 1.000000     H
    H   1.0     0.287371     0.514708     0.586413  Biso 1.000000     H
    H   1.0     0.449851     0.871077     0.757214  Biso 1.000000     H
    H   1.0     0.298864     0.909560     0.639477  Biso 1.000000     H
    H   1.0     0.163267     0.804363     0.602530  Biso 1.000000     H
    H   1.0     0.983204     0.540056     0.137800  Biso 1.000000     H
    H   1.0     0.991170     0.606769     0.990666  Biso 1.000000     H
    H   1.0     0.116030     0.806275     0.045948  Biso 1.000000     H
    H   1.0     0.237358     0.946075     0.249247  Biso 1.000000     H
    H   1.0     0.586372     0.287380     0.514719  Biso 1.000000     H
    H   1.0     0.757158     0.449882     0.871091  Biso 1.000000     H
    H   1.0     0.639439     0.298884     0.909574  Biso 1.000000     H
    H   1.0     0.602510     0.163285     0.804375  Biso 1.000000     H
    H   1.0     0.137798     0.983238     0.540060  Biso 1.000000     H
    H   1.0     0.990592     0.991196     0.606766  Biso 1.000000     H
    H   1.0     0.045923     0.116022     0.806280  Biso 1.000000     H
    H   1.0     0.249211     0.237364     0.946083  Biso 1.000000     H
    H   1.0     0.514669     0.586385     0.287374  Biso 1.000000     H
    H   1.0     0.871030     0.757192     0.449879  Biso 1.000000     H
    H   1.0     0.909524     0.639463     0.298878  Biso 1.000000     H
    H   1.0     0.804333     0.602522     0.163277  Biso 1.000000     H
    H   1.0     0.540031     0.137806     0.983260  Biso 1.000000     H
    H   1.0     0.606736     0.990643     0.991227  Biso 1.000000     H
    H   1.0     0.806239     0.045933     0.116035  Biso 1.000000     H
    H   1.0     0.946034     0.249227     0.237379  Biso 1.000000     H
    C   1.0     0.692939     0.396501     0.387696  Biso 1.000000     C
    C   1.0     0.609480     0.217131     0.300194  Biso 1.000000     C
    C   1.0     0.763442     0.179214     0.416725  Biso 1.000000     C
    C   1.0     0.800929     0.202253     0.538891  Biso 1.000000     C
    C   1.0     0.893597     0.293167     0.723675  Biso 1.000000     C
    C   1.0     0.962072     0.372091     0.838200  Biso 1.000000     C
    C   1.0     0.956926     0.334105     0.919486  Biso 1.000000     C
    C   1.0     0.886045     0.220199     0.887968  Biso 1.000000     C
    C   1.0     0.817857     0.141263     0.774311  Biso 1.000000     C
    C   1.0     0.820833     0.178833     0.691586  Biso 1.000000     C
    C   1.0     0.387673     0.692974     0.396508  Biso 1.000000     C
    C   1.0     0.300179     0.609502     0.217136  Biso 1.000000     C
    C   1.0     0.416690     0.763474     0.179219  Biso 1.000000     C
    C   1.0     0.538853     0.800969     0.202261  Biso 1.000000     C
    C   1.0     0.723630     0.893656     0.293173  Biso 1.000000     C
    C   1.0     0.838148     0.962123     0.372104  Biso 1.000000     C
    C   1.0     0.919437     0.956989     0.334117  Biso 1.000000     C
    C   1.0     0.887928     0.886088     0.220215  Biso 1.000000     C
    C   1.0     0.774277     0.817900     0.141274  Biso 1.000000     C
    C   1.0     0.691550     0.820857     0.178847  Biso 1.000000     C
    C   1.0     0.396496     0.387700     0.692997  Biso 1.000000     C
    C   1.0     0.217130     0.300196     0.609525  Biso 1.000000     C
    C   1.0     0.179201     0.416716     0.763498  Biso 1.000000     C
    C   1.0     0.202239     0.538882     0.800990  Biso 1.000000     C
    C   1.0     0.293148     0.723664     0.893669  Biso 1.000000     C
    C   1.0     0.372074     0.838186     0.962137  Biso 1.000000     C
    C   1.0     0.334088     0.919475     0.956997  Biso 1.000000     C
    C   1.0     0.220190     0.887963     0.886096  Biso 1.000000     C
    C   1.0     0.141254     0.774308     0.817907  Biso 1.000000     C
    C   1.0     0.178826     0.691581     0.820873  Biso 1.000000     C
    C   1.0     0.307030     0.603514     0.612338  Biso 1.000000     C
    C   1.0     0.390490     0.782884     0.699838  Biso 1.000000     C
    C   1.0     0.236528     0.820802     0.583308  Biso 1.000000     C
    C   1.0     0.199040     0.797764     0.461143  Biso 1.000000     C
    C   1.0     0.106359     0.706853     0.276359  Biso 1.000000     C
    C   1.0     0.037900     0.627925     0.161833  Biso 1.000000     C
    C   1.0     0.043037     0.665913     0.080548  Biso 1.000000     C
    C   1.0     0.113931     0.779814     0.112066  Biso 1.000000     C
    C   1.0     0.182111     0.858753     0.225723  Biso 1.000000     C
    C   1.0     0.179151     0.821178     0.308446  Biso 1.000000     C
    C   1.0     0.612297     0.307042     0.603526  Biso 1.000000     C
    C   1.0     0.699792     0.390513     0.782898  Biso 1.000000     C
    C   1.0     0.583280     0.236542     0.820814  Biso 1.000000     C
    C   1.0     0.461117     0.199048     0.797772  Biso 1.000000     C
    C   1.0     0.276340     0.106370     0.706857  Biso 1.000000     C
    C   1.0     0.161822     0.037891     0.627930  Biso 1.000000     C
    C   1.0     0.080533     0.043031     0.665915  Biso 1.000000     C
    C   1.0     0.112042     0.113922     0.779821  Biso 1.000000     C
    C   1.0     0.225693     0.182117     0.858759  Biso 1.000000     C
    C   1.0     0.308420     0.179147     0.821190  Biso 1.000000     C
    C   1.0     0.603475     0.612316     0.307037  Biso 1.000000     C
    C   1.0     0.782841     0.699820     0.390508  Biso 1.000000     C
    C   1.0     0.820769     0.583299     0.236536  Biso 1.000000     C
    C   1.0     0.797731     0.461133     0.199044  Biso 1.000000     C
    C   1.0     0.706822     0.276351     0.106366  Biso 1.000000     C
    C   1.0     0.627896     0.161829     0.037897  Biso 1.000000     C
    C   1.0     0.665881     0.080540     0.043038  Biso 1.000000     C
    C   1.0     0.779780     0.112053     0.113937  Biso 1.000000     C
    C   1.0     0.858716     0.225707     0.182126  Biso 1.000000     C
    C   1.0     0.821145     0.308434     0.179159  Biso 1.000000     C
    N   1.0     0.595612     0.308090     0.299051  Biso 1.000000     N
    N   1.0     0.765569     0.365018     0.442918  Biso 1.000000     N
    N   1.0     0.710368     0.249017     0.386291  Biso 1.000000     N
    N   1.0     0.880822     0.305095     0.625141  Biso 1.000000     N
    N   1.0     0.762054     0.122737     0.573254  Biso 1.000000     N
    N   1.0     0.299042     0.595636     0.308096  Biso 1.000000     N
    N   1.0     0.442884     0.765608     0.365023  Biso 1.000000     N
    N   1.0     0.386259     0.710400     0.249022  Biso 1.000000     N
    N   1.0     0.625096     0.880859     0.305108  Biso 1.000000     N
    N   1.0     0.573222     0.762096     0.122744  Biso 1.000000     N
    N   1.0     0.308091     0.299062     0.595659  Biso 1.000000     N
    N   1.0     0.365005     0.442913     0.765631  Biso 1.000000     N
    N   1.0     0.249008     0.386282     0.710426  Biso 1.000000     N
    N   1.0     0.305081     0.625129     0.880880  Biso 1.000000     N
    N   1.0     0.122724     0.573248     0.762113  Biso 1.000000     N
    N   1.0     0.404358     0.691925     0.700980  Biso 1.000000     N
    N   1.0     0.234400     0.634998     0.557116  Biso 1.000000     N
    N   1.0     0.289602     0.750998     0.613742  Biso 1.000000     N
    N   1.0     0.119154     0.694918     0.374892  Biso 1.000000     N
    N   1.0     0.237910     0.877281     0.426780  Biso 1.000000     N
    N   1.0     0.700929     0.404380     0.691938  Biso 1.000000     N
    N   1.0     0.557086     0.234409     0.635010  Biso 1.000000     N
    N   1.0     0.613712     0.289616     0.751012  Biso 1.000000     N
    N   1.0     0.374874     0.119152     0.694928  Biso 1.000000     N
    N   1.0     0.426748     0.237924     0.877288  Biso 1.000000     N
    N   1.0     0.691880     0.700955     0.404375  Biso 1.000000     N
    N   1.0     0.634965     0.557103     0.234404  Biso 1.000000     N
    N   1.0     0.750962     0.613734     0.289608  Biso 1.000000     N
    N   1.0     0.694889     0.374886     0.119153  Biso 1.000000     N
    N   1.0     0.877246     0.426767     0.237920  Biso 1.000000     N
   Cl   1.0     0.963042     0.624283     0.536943  Biso 1.000000    Cl
   Cl   1.0     0.536911     0.963085     0.624298  Biso 1.000000    Cl
   Cl   1.0     0.624265     0.536938     0.963111  Biso 1.000000    Cl
   Cl   1.0     0.036926     0.375732     0.463090  Biso 1.000000    Cl
   Cl   1.0     0.463061     0.036934     0.375736  Biso 1.000000    Cl
   Cl   1.0     0.375705     0.463075     0.036922  Biso 1.000000    Cl
   Cd   1.0     0.955053     0.461504     0.598854  Biso 1.000000    Cd
   Cd   1.0     0.598812     0.955100     0.461517  Biso 1.000000    Cd
   Cd   1.0     0.461485     0.598844     0.955128  Biso 1.000000    Cd
   Cd   1.0     0.044916     0.538512     0.401181  Biso 1.000000    Cd
   Cd   1.0     0.401158     0.044917     0.538516  Biso 1.000000    Cd
   Cd   1.0     0.538485     0.401170     0.044906  Biso 1.000000    Cd
