#======================================================================

# CRYSTAL DATA

#----------------------------------------------------------------------

data_VESTA_phase_1


_pd_phase_name                         MOF
_cell_length_a                         14.41700
_cell_length_b                         14.40900
_cell_length_c                         23.74400
_cell_angle_alpha                      105.92100
_cell_angle_beta                       105.95000
_cell_angle_gamma                      95.08700
_symmetry_space_group_name_H-M         "P 1"
_symmetry_Int_Tables_number            1

loop_
_symmetry_equiv_pos_as_xyz
   "x, y, z"

loop_
   _atom_site_label
   _atom_site_occupancy
   _atom_site_fract_x
   _atom_site_fract_y
   _atom_site_fract_z
   _atom_site_adp_type
   _atom_site_B_iso_or_equiv
   _atom_site_type_symbol
    H   1.0     0.350725     0.075806     0.983230  Biso 1.000000     H
    H   1.0     0.461434     0.983088     0.038658  Biso 1.000000     H
    H   1.0     0.391573     0.818837     0.041539  Biso 1.000000     H
    H   1.0     0.217913     0.748339     0.986499  Biso 1.000000     H
    H   1.0     0.806757     0.868242     0.914922  Biso 1.000000     H
    H   1.0     0.656773     0.879745     0.836314  Biso 1.000000     H
    H   1.0     0.796706     0.171480     0.858188  Biso 1.000000     H
    H   1.0     0.943518     0.143491     0.932877  Biso 1.000000     H
    H   1.0     0.522212     0.947149     0.819212  Biso 1.000000     H
    H   1.0     0.375534     0.968076     0.742563  Biso 1.000000     H
    H   1.0     0.545963     0.151757     0.686874  Biso 1.000000     H
    H   1.0     0.697820     0.138348     0.760570  Biso 1.000000     H
    H   1.0     0.632301     0.408391     0.983499  Biso 1.000000     H
    H   1.0     0.576878     0.556423     0.038740  Biso 1.000000     H
    H   1.0     0.650342     0.723283     0.041640  Biso 1.000000     H
    H   1.0     0.769506     0.738603     0.986607  Biso 1.000000     H
    H   1.0     0.109501     0.546020     0.914823  Biso 1.000000     H
    H   1.0     0.180912     0.455339     0.836264  Biso 1.000000     H
    H   1.0     0.060277     0.186467     0.858334  Biso 1.000000     H
    H   1.0     0.988346     0.289732     0.932995  Biso 1.000000     H
    H   1.0     0.297274     0.369831     0.818800  Biso 1.000000     H
    H   1.0     0.366910     0.271523     0.742075  Biso 1.000000     H
    H   1.0     0.140077     0.033954     0.687355  Biso 1.000000     H
    H   1.0     0.062224     0.121886     0.761173  Biso 1.000000     H
    H   1.0     0.924414     0.649001     0.516595  Biso 1.000000     H
    H   1.0     0.017057     0.538249     0.461241  Biso 1.000000     H
    H   1.0     0.181245     0.608141     0.458415  Biso 1.000000     H
    H   1.0     0.251730     0.781881     0.513401  Biso 1.000000     H
    H   1.0     0.131778     0.193546     0.585103  Biso 1.000000     H
    H   1.0     0.120171     0.343581     0.663625  Biso 1.000000     H
    H   1.0     0.828721     0.203300     0.641764  Biso 1.000000     H
    H   1.0     0.856816     0.056468     0.567183  Biso 1.000000     H
    H   1.0     0.052791     0.478247     0.680915  Biso 1.000000     H
    H   1.0     0.031737     0.624752     0.757610  Biso 1.000000     H
    H   1.0     0.848121     0.453787     0.813002  Biso 1.000000     H
    H   1.0     0.861574     0.302067     0.739187  Biso 1.000000     H
    H   1.0     0.591938     0.367750     0.516710  Biso 1.000000     H
    H   1.0     0.443971     0.423123     0.461354  Biso 1.000000     H
    H   1.0     0.277186     0.349788     0.458521  Biso 1.000000     H
    H   1.0     0.261864     0.230750     0.513666  Biso 1.000000     H
    H   1.0     0.454059     0.890408     0.585087  Biso 1.000000     H
    H   1.0     0.544826     0.818997     0.663691  Biso 1.000000     H
    H   1.0     0.813436     0.939341     0.641338  Biso 1.000000     H
    H   1.0     0.710112     0.011346     0.566669  Biso 1.000000     H
    H   1.0     0.630283     0.702475     0.681105  Biso 1.000000     H
    H   1.0     0.728584     0.632891     0.757917  Biso 1.000000     H
    H   1.0     0.966030     0.859804     0.812535  Biso 1.000000     H
    H   1.0     0.878117     0.937581     0.738605  Biso 1.000000     H
    H   1.0     0.649299     0.924143     0.016753  Biso 1.000000     H
    H   1.0     0.538604     0.016875     0.961329  Biso 1.000000     H
    H   1.0     0.608484     0.181117     0.958445  Biso 1.000000     H
    H   1.0     0.782145     0.251606     0.013492  Biso 1.000000     H
    H   1.0     0.193227     0.131747     0.085065  Biso 1.000000     H
    H   1.0     0.343234     0.120267     0.163663  Biso 1.000000     H
    H   1.0     0.203379     0.828496     0.141781  Biso 1.000000     H
    H   1.0     0.056538     0.856463     0.067104  Biso 1.000000     H
    H   1.0     0.477821     0.052879     0.180743  Biso 1.000000     H
    H   1.0     0.624525     0.031958     0.257378  Biso 1.000000     H
    H   1.0     0.454159     0.848239     0.313076  Biso 1.000000     H
    H   1.0     0.302272     0.861641     0.239394  Biso 1.000000     H
    H   1.0     0.367694     0.591481     0.016453  Biso 1.000000     H
    H   1.0     0.423147     0.443446     0.961245  Biso 1.000000     H
    H   1.0     0.349714     0.276597     0.958379  Biso 1.000000     H
    H   1.0     0.230556     0.261297     0.013422  Biso 1.000000     H
    H   1.0     0.890560     0.453868     0.085164  Biso 1.000000     H
    H   1.0     0.819147     0.544578     0.163716  Biso 1.000000     H
    H   1.0     0.939764     0.813417     0.141598  Biso 1.000000     H
    H   1.0     0.011702     0.710126     0.066950  Biso 1.000000     H
    H   1.0     0.702777     0.630110     0.181161  Biso 1.000000     H
    H   1.0     0.633147     0.728471     0.257873  Biso 1.000000     H
    H   1.0     0.860002     0.966011     0.312557  Biso 1.000000     H
    H   1.0     0.937844     0.878026     0.238747  Biso 1.000000     H
    H   1.0     0.075727     0.350969     0.483362  Biso 1.000000     H
    H   1.0     0.983059     0.461692     0.538709  Biso 1.000000     H
    H   1.0     0.818867     0.391770     0.541517  Biso 1.000000     H
    H   1.0     0.748397     0.218038     0.486506  Biso 1.000000     H
    H   1.0     0.868274     0.806471     0.414816  Biso 1.000000     H
    H   1.0     0.879883     0.656401     0.336320  Biso 1.000000     H
    H   1.0     0.171387     0.796600     0.358223  Biso 1.000000     H
    H   1.0     0.143286     0.943476     0.432769  Biso 1.000000     H
    H   1.0     0.947287     0.521718     0.319086  Biso 1.000000     H
    H   1.0     0.968344     0.375182     0.242412  Biso 1.000000     H
    H   1.0     0.151936     0.546094     0.186973  Biso 1.000000     H
    H   1.0     0.138474     0.697841     0.260763  Biso 1.000000     H
    H   1.0     0.408335     0.632333     0.483356  Biso 1.000000     H
    H   1.0     0.556307     0.576913     0.538674  Biso 1.000000     H
    H   1.0     0.723078     0.650203     0.541467  Biso 1.000000     H
    H   1.0     0.738400     0.769272     0.486341  Biso 1.000000     H
    H   1.0     0.546172     0.109639     0.414953  Biso 1.000000     H
    H   1.0     0.455383     0.181009     0.336330  Biso 1.000000     H
    H   1.0     0.186796     0.060683     0.358719  Biso 1.000000     H
    H   1.0     0.290135     0.988718     0.433401  Biso 1.000000     H
    H   1.0     0.369852     0.297546     0.318893  Biso 1.000000     H
    H   1.0     0.271466     0.367072     0.242079  Biso 1.000000     H
    H   1.0     0.034097     0.140099     0.187528  Biso 1.000000     H
    H   1.0     0.122095     0.062389     0.261477  Biso 1.000000     H
    C   1.0     0.079150     0.823179     0.924682  Biso 1.000000     C
    C   1.0     0.184681     0.871866     0.954669  Biso 1.000000     C
    C   1.0     0.222862     0.965639     0.955301  Biso 1.000000     C
    C   1.0     0.322622     0.004087     0.984662  Biso 1.000000     C
    C   1.0     0.384025     0.951706     0.015348  Biso 1.000000     C
    C   1.0     0.345973     0.859843     0.016310  Biso 1.000000     C
    C   1.0     0.247384     0.819681     0.985183  Biso 1.000000     C
    C   1.0     0.801521     0.933179     0.900015  Biso 1.000000     C
    C   1.0     0.717928     0.941100     0.856783  Biso 1.000000     C
    C   1.0     0.713630     0.027151     0.840007  Biso 1.000000     C
    C   1.0     0.796868     0.101384     0.867196  Biso 1.000000     C
    C   1.0     0.877851     0.087568     0.909727  Biso 1.000000     C
    C   1.0     0.624299     0.039747     0.796188  Biso 1.000000     C
    C   1.0     0.531063     0.992062     0.790244  Biso 1.000000     C
    C   1.0     0.448655     0.004335     0.748171  Biso 1.000000     C
    C   1.0     0.542886     0.107841     0.717326  Biso 1.000000     C
    C   1.0     0.628408     0.099175     0.758730  Biso 1.000000     C
    C   1.0     0.846263     0.601889     0.924662  Biso 1.000000     C
    C   1.0     0.770577     0.583375     0.954805  Biso 1.000000     C
    C   1.0     0.732740     0.490388     0.955545  Biso 1.000000     C
    C   1.0     0.662035     0.481434     0.984881  Biso 1.000000     C
    C   1.0     0.631266     0.564406     0.015476  Biso 1.000000     C
    C   1.0     0.670659     0.657082     0.016427  Biso 1.000000     C
    C   1.0     0.738457     0.666057     0.985308  Biso 1.000000     C
    C   1.0     0.099294     0.466258     0.899961  Biso 1.000000     C
    C   1.0     0.139667     0.414784     0.856768  Biso 1.000000     C
    C   1.0     0.126444     0.312081     0.840072  Biso 1.000000     C
    C   1.0     0.069745     0.265503     0.867311  Biso 1.000000     C
    C   1.0     0.031360     0.322143     0.909804  Biso 1.000000     C
    C   1.0     0.171790     0.255228     0.796258  Biso 1.000000     C
    C   1.0     0.259217     0.296217     0.790044  Biso 1.000000     C
    C   1.0     0.299342     0.241480     0.747954  Biso 1.000000     C
    C   1.0     0.173810     0.108096     0.717632  Biso 1.000000     C
    C   1.0     0.129886     0.158625     0.759068  Biso 1.000000     C
    C   1.0     0.176900     0.920747     0.575218  Biso 1.000000     C
    C   1.0     0.128274     0.815136     0.545212  Biso 1.000000     C
    C   1.0     0.034531     0.776908     0.544543  Biso 1.000000     C
    C   1.0     0.996112     0.677105     0.515185  Biso 1.000000     C
    C   1.0     0.048437     0.615687     0.484548  Biso 1.000000     C
    C   1.0     0.140266     0.653769     0.483621  Biso 1.000000     C
    C   1.0     0.180420     0.752412     0.514714  Biso 1.000000     C
    C   1.0     0.066870     0.198723     0.599995  Biso 1.000000     C
    C   1.0     0.058886     0.282354     0.643176  Biso 1.000000     C
    C   1.0     0.972900     0.286566     0.659937  Biso 1.000000     C
    C   1.0     0.898781     0.203219     0.632770  Biso 1.000000     C
    C   1.0     0.912663     0.122209     0.590300  Biso 1.000000     C
    C   1.0     0.960226     0.375861     0.703757  Biso 1.000000     C
    C   1.0     0.007846     0.469226     0.709815  Biso 1.000000     C
    C   1.0     0.995523     0.551544     0.751924  Biso 1.000000     C
    C   1.0     0.892035     0.457015     0.782591  Biso 1.000000     C
    C   1.0     0.900751     0.371576     0.741136  Biso 1.000000     C
    C   1.0     0.398493     0.153842     0.575668  Biso 1.000000     C
    C   1.0     0.417034     0.229611     0.545528  Biso 1.000000     C
    C   1.0     0.509979     0.267441     0.544783  Biso 1.000000     C
    C   1.0     0.518926     0.338077     0.515353  Biso 1.000000     C
    C   1.0     0.435983     0.368818     0.484705  Biso 1.000000     C
    C   1.0     0.343353     0.329471     0.483780  Biso 1.000000     C
    C   1.0     0.334398     0.261746     0.514969  Biso 1.000000     C
    C   1.0     0.533785     0.900527     0.599892  Biso 1.000000     C
    C   1.0     0.585301     0.860172     0.643111  Biso 1.000000     C
    C   1.0     0.687951     0.873323     0.659740  Biso 1.000000     C
    C   1.0     0.734450     0.929938     0.632413  Biso 1.000000     C
    C   1.0     0.677784     0.968331     0.589909  Biso 1.000000     C
    C   1.0     0.744828     0.827988     0.703586  Biso 1.000000     C
    C   1.0     0.703874     0.740552     0.709855  Biso 1.000000     C
    C   1.0     0.758612     0.700467     0.752002  Biso 1.000000     C
    C   1.0     0.891923     0.826028     0.782257  Biso 1.000000     C
    C   1.0     0.841403     0.869915     0.740758  Biso 1.000000     C
    C   1.0     0.920889     0.176760     0.075317  Biso 1.000000     C
    C   1.0     0.815359     0.128074     0.045321  Biso 1.000000     C
    C   1.0     0.777171     0.034303     0.044689  Biso 1.000000     C
    C   1.0     0.677411     0.995861     0.015325  Biso 1.000000     C
    C   1.0     0.616015     0.048250     0.984640  Biso 1.000000     C
    C   1.0     0.654076     0.140108     0.983676  Biso 1.000000     C
    C   1.0     0.752665     0.180265     0.014807  Biso 1.000000     C
    C   1.0     0.198484     0.066809     0.099969  Biso 1.000000     C
    C   1.0     0.282092     0.058898     0.143194  Biso 1.000000     C
    C   1.0     0.286419     0.972844     0.159962  Biso 1.000000     C
    C   1.0     0.203195     0.898595     0.132776  Biso 1.000000     C
    C   1.0     0.122193     0.912401     0.090253  Biso 1.000000     C
    C   1.0     0.375764     0.960260     0.203775  Biso 1.000000     C
    C   1.0     0.468990     0.007961     0.209711  Biso 1.000000     C
    C   1.0     0.551411     0.995689     0.251774  Biso 1.000000     C
    C   1.0     0.457210     0.892161     0.282624  Biso 1.000000     C
    C   1.0     0.371676     0.900825     0.241231  Biso 1.000000     C
    C   1.0     0.153765     0.398012     0.075329  Biso 1.000000     C
    C   1.0     0.229453     0.416521     0.045186  Biso 1.000000     C
    C   1.0     0.267274     0.509502     0.044429  Biso 1.000000     C
    C   1.0     0.337974     0.518444     0.015087  Biso 1.000000     C
    C   1.0     0.368762     0.435470     0.984512  Biso 1.000000     C
    C   1.0     0.329385     0.342801     0.983579  Biso 1.000000     C
    C   1.0     0.261595     0.333837     0.014705  Biso 1.000000     C
    C   1.0     0.900761     0.533630     0.100014  Biso 1.000000     C
    C   1.0     0.860390     0.585119     0.143203  Biso 1.000000     C
    C   1.0     0.873612     0.687821     0.159883  Biso 1.000000     C
    C   1.0     0.930305     0.734384     0.132635  Biso 1.000000     C
    C   1.0     0.968689     0.677730     0.090148  Biso 1.000000     C
    C   1.0     0.828268     0.744697     0.203688  Biso 1.000000     C
    C   1.0     0.740838     0.703728     0.209906  Biso 1.000000     C
    C   1.0     0.700718     0.758494     0.251989  Biso 1.000000     C
    C   1.0     0.826263     0.891864     0.282291  Biso 1.000000     C
    C   1.0     0.870180     0.841306     0.240861  Biso 1.000000     C
    C   1.0     0.823218     0.079205     0.424677  Biso 1.000000     C
    C   1.0     0.871862     0.184809     0.454698  Biso 1.000000     C
    C   1.0     0.965615     0.223049     0.455384  Biso 1.000000     C
    C   1.0     0.004020     0.322853     0.484755  Biso 1.000000     C
    C   1.0     0.951684     0.384256     0.515392  Biso 1.000000     C
    C   1.0     0.859852     0.346159     0.516308  Biso 1.000000     C
    C   1.0     0.819708     0.247519     0.485200  Biso 1.000000     C
    C   1.0     0.933194     0.801268     0.399938  Biso 1.000000     C
    C   1.0     0.941175     0.717621     0.356769  Biso 1.000000     C
    C   1.0     0.027174     0.713383     0.340025  Biso 1.000000     C
    C   1.0     0.101311     0.796714     0.367195  Biso 1.000000     C
    C   1.0     0.087429     0.877742     0.409650  Biso 1.000000     C
    C   1.0     0.039846     0.624072     0.296219  Biso 1.000000     C
    C   1.0     0.992231     0.530717     0.290182  Biso 1.000000     C
    C   1.0     0.004552     0.448384     0.248083  Biso 1.000000     C
    C   1.0     0.108028     0.542884     0.217389  Biso 1.000000     C
    C   1.0     0.099315     0.628337     0.258833  Biso 1.000000     C
    C   1.0     0.601719     0.846222     0.424364  Biso 1.000000     C
    C   1.0     0.583231     0.770446     0.454512  Biso 1.000000     C
    C   1.0     0.490296     0.732632     0.455278  Biso 1.000000     C
    C   1.0     0.481347     0.661995     0.484705  Biso 1.000000     C
    C   1.0     0.564290     0.631227     0.515329  Biso 1.000000     C
    C   1.0     0.656913     0.670552     0.516230  Biso 1.000000     C
    C   1.0     0.665868     0.738292     0.485050  Biso 1.000000     C
    C   1.0     0.466445     0.099507     0.400146  Biso 1.000000     C
    C   1.0     0.414917     0.139854     0.356925  Biso 1.000000     C
    C   1.0     0.312266     0.126700     0.340302  Biso 1.000000     C
    C   1.0     0.265782     0.070100     0.367643  Biso 1.000000     C
    C   1.0     0.322457     0.031713     0.410147  Biso 1.000000     C
    C   1.0     0.255358     0.172003     0.296447  Biso 1.000000     C
    C   1.0     0.296265     0.259437     0.290154  Biso 1.000000     C
    C   1.0     0.241474     0.299496     0.248010  Biso 1.000000     C
    C   1.0     0.108206     0.173904     0.217793  Biso 1.000000     C
    C   1.0     0.158779     0.130045     0.259293  Biso 1.000000     C
    N   1.0     0.880328     0.005671     0.926605  Biso 1.000000     N
    N   1.0     0.453845     0.061061     0.711872  Biso 1.000000     N
    N   1.0     0.046414     0.420791     0.926589  Biso 1.000000     N
    N   1.0     0.257519     0.148742     0.711916  Biso 1.000000     N
    N   1.0     0.994515     0.119798     0.573437  Biso 1.000000     N
    N   1.0     0.938798     0.546176     0.788175  Biso 1.000000     N
    N   1.0     0.579182     0.953341     0.573197  Biso 1.000000     N
    N   1.0     0.851309     0.742332     0.788048  Biso 1.000000     N
    N   1.0     0.119691     0.994300     0.073379  Biso 1.000000     N
    N   1.0     0.546241     0.938953     0.288070  Biso 1.000000     N
    N   1.0     0.953638     0.579085     0.073379  Biso 1.000000     N
    N   1.0     0.742549     0.851236     0.288012  Biso 1.000000     N
    N   1.0     0.005560     0.880182     0.426493  Biso 1.000000     N
    N   1.0     0.061271     0.453732     0.211826  Biso 1.000000     N
    N   1.0     0.421058     0.046708     0.426855  Biso 1.000000     N
    N   1.0     0.148774     0.257602     0.211980  Biso 1.000000     N
    O   1.0     0.010456     0.859471     0.940779  Biso 1.000000     O
    O   1.0     0.064223     0.738688     0.883682  Biso 1.000000     O
    O   1.0     0.077498     0.978528     0.863309  Biso 1.000000     O
    O   1.0     0.098708     0.083653     0.969564  Biso 1.000000     O
    O   1.0     0.215054     0.119009     0.916523  Biso 1.000000     O
    O   1.0     0.930941     0.581554     0.940765  Biso 1.000000     O
    O   1.0     0.820487     0.645366     0.883488  Biso 1.000000     O
    O   1.0     0.786418     0.385642     0.863658  Biso 1.000000     O
    O   1.0     0.870947     0.386540     0.970040  Biso 1.000000     O
    O   1.0     0.701957     0.298518     0.917279  Biso 1.000000     O
    O   1.0     0.140640     0.989426     0.559021  Biso 1.000000     O
    O   1.0     0.261276     0.935714     0.616331  Biso 1.000000     O
    O   1.0     0.021707     0.921891     0.636712  Biso 1.000000     O
    O   1.0     0.916900     0.901541     0.530514  Biso 1.000000     O
    O   1.0     0.881006     0.784562     0.583006  Biso 1.000000     O
    O   1.0     0.418630     0.069069     0.559443  Biso 1.000000     O
    O   1.0     0.355151     0.179622     0.616887  Biso 1.000000     O
    O   1.0     0.614900     0.213970     0.636790  Biso 1.000000     O
    O   1.0     0.613669     0.129092     0.530417  Biso 1.000000     O
    O   1.0     0.701756     0.298141     0.582911  Biso 1.000000     O
    O   1.0     0.989585     0.140492     0.059208  Biso 1.000000     O
    O   1.0     0.935816     0.261230     0.116337  Biso 1.000000     O
    O   1.0     0.922544     0.021396     0.136669  Biso 1.000000     O
    O   1.0     0.901315     0.916284     0.030409  Biso 1.000000     O
    O   1.0     0.784982     0.880917     0.083454  Biso 1.000000     O
    O   1.0     0.069095     0.418360     0.059221  Biso 1.000000     O
    O   1.0     0.179531     0.354531     0.116502  Biso 1.000000     O
    O   1.0     0.213611     0.614297     0.136306  Biso 1.000000     O
    O   1.0     0.129070     0.613379     0.029921  Biso 1.000000     O
    O   1.0     0.298069     0.701367     0.082656  Biso 1.000000     O
    O   1.0     0.859454     0.010504     0.440861  Biso 1.000000     O
    O   1.0     0.738846     0.064260     0.383565  Biso 1.000000     O
    O   1.0     0.978599     0.078061     0.363246  Biso 1.000000     O
    O   1.0     0.083279     0.098471     0.469479  Biso 1.000000     O
    O   1.0     0.119232     0.215451     0.417004  Biso 1.000000     O
    O   1.0     0.581654     0.931012     0.440647  Biso 1.000000     O
    O   1.0     0.644933     0.820411     0.383077  Biso 1.000000     O
    O   1.0     0.385523     0.786071     0.363252  Biso 1.000000     O
    O   1.0     0.386522     0.870950     0.469578  Biso 1.000000     O
    O   1.0     0.298520     0.701884     0.417062  Biso 1.000000     O
    S   1.0     0.147714     0.041890     0.921880  Biso 1.000000     S
    S   1.0     0.774541     0.380793     0.922340  Biso 1.000000     S
    S   1.0     0.958380     0.852024     0.577994  Biso 1.000000     S
    S   1.0     0.619548     0.225636     0.578017  Biso 1.000000     S
    S   1.0     0.852319     0.958042     0.078100  Biso 1.000000     S
    S   1.0     0.225479     0.619114     0.077616  Biso 1.000000     S
    S   1.0     0.041838     0.147963     0.421977  Biso 1.000000     S
    S   1.0     0.380746     0.774409     0.422002  Biso 1.000000     S
   Zn   1.0     0.000001    -0.000017    -0.000001  Biso 1.000000    Zn
   Zn   1.0     0.000017     0.499947    -0.000007  Biso 1.000000    Zn
   Zn   1.0     0.000024     0.000000     0.499952  Biso 1.000000    Zn
   Zn   1.0     0.500091     0.000031     0.500037  Biso 1.000000    Zn
   Zn   1.0     0.925553     0.674900     0.849305  Biso 1.000000    Zn
   Zn   1.0     0.325114     0.074459     0.650960  Biso 1.000000    Zn
   Zn   1.0     0.074490     0.324991     0.150699  Biso 1.000000    Zn
   Zn   1.0     0.674953     0.925521     0.348962  Biso 1.000000    Zn
