#======================================================================

# CRYSTAL DATA

#----------------------------------------------------------------------

data_VESTA_phase_1


_pd_phase_name                         MOF
_cell_length_a                         17.43400
_cell_length_b                         12.84100
_cell_length_c                         17.87500
_cell_angle_alpha                      90.00200
_cell_angle_beta                       89.99800
_cell_angle_gamma                      112.94000
_symmetry_space_group_name_H-M         "P 1"
_symmetry_Int_Tables_number            1

loop_
_symmetry_equiv_pos_as_xyz
   "x, y, z"

loop_
   _atom_site_label
   _atom_site_occupancy
   _atom_site_fract_x
   _atom_site_fract_y
   _atom_site_fract_z
   _atom_site_adp_type
   _atom_site_B_iso_or_equiv
   _atom_site_type_symbol
    H   1.0     0.289255     0.651751     0.804310  Biso 1.000000     H
    H   1.0     0.789254     0.651751     0.804310  Biso 1.000000     H
    H   1.0     0.185789     0.463055     0.766128  Biso 1.000000     H
    H   1.0     0.685788     0.463054     0.766128  Biso 1.000000     H
    H   1.0     0.328229     0.479855     0.565357  Biso 1.000000     H
    H   1.0     0.828228     0.479854     0.565357  Biso 1.000000     H
    H   1.0     0.429569     0.666528     0.603584  Biso 1.000000     H
    H   1.0     0.929568     0.666528     0.603584  Biso 1.000000     H
    H   1.0     0.192915     0.383104     0.528053  Biso 1.000000     H
    H   1.0     0.692915     0.383104     0.528053  Biso 1.000000     H
    H   1.0     0.247268     0.301148     0.561625  Biso 1.000000     H
    H   1.0     0.747267     0.301147     0.561625  Biso 1.000000     H
    H   1.0     0.413035     0.815488     0.833228  Biso 1.000000     H
    H   1.0     0.913034     0.815488     0.833228  Biso 1.000000     H
    H   1.0     0.476972     0.740094     0.809412  Biso 1.000000     H
    H   1.0     0.976971     0.740094     0.809412  Biso 1.000000     H
    H   1.0     0.195462     0.869674     0.481559  Biso 1.000000     H
    H   1.0     0.695461     0.869674     0.481560  Biso 1.000000     H
    H   1.0     0.107347     0.796844     0.425342  Biso 1.000000     H
    H   1.0     0.607347     0.796844     0.425342  Biso 1.000000     H
    H   1.0     0.117968     0.531177     0.586676  Biso 1.000000     H
    H   1.0     0.617968     0.531177     0.586676  Biso 1.000000     H
    H   1.0    -0.007982     0.659254     0.425408  Biso 1.000000     H
    H   1.0     0.492017     0.659254     0.425408  Biso 1.000000     H
    H   1.0     0.460752     0.348229     0.304300  Biso 1.000000     H
    H   1.0     0.960751     0.348228     0.304300  Biso 1.000000     H
    H   1.0     0.064220     0.536920     0.266116  Biso 1.000000     H
    H   1.0     0.564220     0.536920     0.266116  Biso 1.000000     H
    H   1.0     0.421777     0.520113     0.065354  Biso 1.000000     H
    H   1.0     0.921777     0.520112     0.065353  Biso 1.000000     H
    H   1.0     0.320437     0.333442     0.103582  Biso 1.000000     H
    H   1.0     0.820436     0.333441     0.103581  Biso 1.000000     H
    H   1.0     0.057081     0.616861     0.028041  Biso 1.000000     H
    H   1.0     0.557080     0.616860     0.028040  Biso 1.000000     H
    H   1.0     0.002735     0.698821     0.061628  Biso 1.000000     H
    H   1.0     0.502734     0.698821     0.061628  Biso 1.000000     H
    H   1.0     0.336984     0.184481     0.333217  Biso 1.000000     H
    H   1.0     0.836983     0.184480     0.333217  Biso 1.000000     H
    H   1.0     0.273050     0.259885     0.309423  Biso 1.000000     H
    H   1.0     0.773049     0.259885     0.309423  Biso 1.000000     H
    H   1.0     0.054556     0.130308     0.981570  Biso 1.000000     H
    H   1.0     0.554556     0.130310     0.981569  Biso 1.000000     H
    H   1.0     0.142677     0.203131     0.925357  Biso 1.000000     H
    H   1.0     0.642677     0.203133     0.925356  Biso 1.000000     H
    H   1.0     0.132044     0.468810     0.086668  Biso 1.000000     H
    H   1.0     0.632044     0.468811     0.086667  Biso 1.000000     H
    H   1.0     0.258002     0.340724     0.925418  Biso 1.000000     H
    H   1.0     0.758003     0.340725     0.925417  Biso 1.000000     H
    H   1.0     0.210746     0.348205     0.195704  Biso 1.000000     H
    H   1.0     0.710746     0.348205     0.195704  Biso 1.000000     H
    H   1.0     0.314217     0.536897     0.233888  Biso 1.000000     H
    H   1.0     0.814217     0.536897     0.233888  Biso 1.000000     H
    H   1.0     0.171776     0.520106     0.434657  Biso 1.000000     H
    H   1.0     0.671776     0.520105     0.434657  Biso 1.000000     H
    H   1.0     0.070431     0.333436     0.396428  Biso 1.000000     H
    H   1.0     0.570431     0.333436     0.396428  Biso 1.000000     H
    H   1.0     0.307086     0.616859     0.471965  Biso 1.000000     H
    H   1.0     0.807086     0.616859     0.471965  Biso 1.000000     H
    H   1.0     0.252736     0.698811     0.438381  Biso 1.000000     H
    H   1.0     0.752736     0.698810     0.438381  Biso 1.000000     H
    H   1.0     0.086972     0.184475     0.166786  Biso 1.000000     H
    H   1.0     0.586971     0.184475     0.166786  Biso 1.000000     H
    H   1.0     0.023034     0.259870     0.190597  Biso 1.000000     H
    H   1.0     0.523034     0.259870     0.190597  Biso 1.000000     H
    H   1.0     0.304552     0.130310     0.518458  Biso 1.000000     H
    H   1.0     0.804552     0.130310     0.518458  Biso 1.000000     H
    H   1.0     0.392672     0.203136     0.574670  Biso 1.000000     H
    H   1.0     0.892672     0.203136     0.574670  Biso 1.000000     H
    H   1.0     0.382046     0.468807     0.413340  Biso 1.000000     H
    H   1.0     0.882045     0.468806     0.413340  Biso 1.000000     H
    H   1.0     0.507997     0.340729     0.574608  Biso 1.000000     H
    H   1.0     0.000000     0.340729     0.574609  Biso 1.000000     H
    H   1.0     0.039252     0.651727     0.695713  Biso 1.000000     H
    H   1.0     0.539250     0.651727     0.695713  Biso 1.000000     H
    H   1.0     0.435786     0.463033     0.733897  Biso 1.000000     H
    H   1.0     0.935786     0.463033     0.733896  Biso 1.000000     H
    H   1.0     0.078229     0.479847     0.934660  Biso 1.000000     H
    H   1.0     0.578229     0.479847     0.934660  Biso 1.000000     H
    H   1.0     0.179567     0.666520     0.896432  Biso 1.000000     H
    H   1.0     0.679566     0.666519     0.896432  Biso 1.000000     H
    H   1.0     0.442920     0.383097     0.971969  Biso 1.000000     H
    H   1.0     0.942918     0.383097     0.971969  Biso 1.000000     H
    H   1.0     0.497269     0.301136     0.938393  Biso 1.000000     H
    H   1.0     0.997269     0.301136     0.938393  Biso 1.000000     H
    H   1.0     0.163019     0.815480     0.666795  Biso 1.000000     H
    H   1.0     0.663018     0.815479     0.666795  Biso 1.000000     H
    H   1.0     0.226955     0.740078     0.690588  Biso 1.000000     H
    H   1.0     0.726954     0.740077     0.690587  Biso 1.000000     H
    H   1.0     0.445456     0.869679     0.018441  Biso 1.000000     H
    H   1.0     0.945456     0.869680     0.018440  Biso 1.000000     H
    H   1.0     0.357337     0.796856     0.074656  Biso 1.000000     H
    H   1.0     0.857337     0.796857     0.074655  Biso 1.000000     H
    H   1.0     0.367971     0.531173     0.913347  Biso 1.000000     H
    H   1.0     0.867972     0.531174     0.913347  Biso 1.000000     H
    H   1.0     0.242012     0.659259     0.074597  Biso 1.000000     H
    H   1.0     0.742013     0.659260     0.074596  Biso 1.000000     H
    C   1.0     0.364544     0.671912     0.704684  Biso 1.000000     C
    C   1.0     0.864543     0.671911     0.704684  Biso 1.000000     C
    C   1.0     0.297478     0.613899     0.751955  Biso 1.000000     C
    C   1.0     0.797477     0.613899     0.751955  Biso 1.000000     C
    C   1.0     0.239447     0.507920     0.730731  Biso 1.000000     C
    C   1.0     0.739446     0.507920     0.730731  Biso 1.000000     C
    C   1.0     0.248187     0.459581     0.662421  Biso 1.000000     C
    C   1.0     0.748187     0.459581     0.662421  Biso 1.000000     C
    C   1.0     0.317610     0.516488     0.617143  Biso 1.000000     C
    C   1.0     0.817610     0.516488     0.617143  Biso 1.000000     C
    C   1.0     0.375656     0.622277     0.638623  Biso 1.000000     C
    C   1.0     0.875656     0.622277     0.638623  Biso 1.000000     C
    C   1.0     0.190684     0.318799     0.569770  Biso 1.000000     C
    C   1.0     0.690683     0.318799     0.569770  Biso 1.000000     C
    C   1.0     0.116961     0.210410     0.550894  Biso 1.000000     C
    C   1.0     0.616960     0.210409     0.550894  Biso 1.000000     C
    C   1.0     0.457569     0.808121     0.791893  Biso 1.000000     C
    C   1.0     0.957568     0.808121     0.791893  Biso 1.000000     C
    C   1.0     0.032865     0.919637     0.787647  Biso 1.000000     C
    C   1.0     0.532864     0.919637     0.787646  Biso 1.000000     C
    C   1.0     0.081868     0.865297     0.528395  Biso 1.000000     C
    C   1.0     0.581868     0.865296     0.528394  Biso 1.000000     C
    C   1.0     0.130041     0.809601     0.483483  Biso 1.000000     C
    C   1.0     0.630041     0.809601     0.483483  Biso 1.000000     C
    C   1.0     0.063538     0.608341     0.507231  Biso 1.000000     C
    C   1.0     0.563537     0.608341     0.507231  Biso 1.000000     C
    C   1.0     0.066159     0.517064     0.548449  Biso 1.000000     C
    C   1.0     0.566158     0.517064     0.548449  Biso 1.000000     C
    C   1.0    -0.003444     0.590881     0.458696  Biso 1.000000     C
    C   1.0     0.496556     0.590881     0.458696  Biso 1.000000     C
    C   1.0     0.385463     0.328062     0.204677  Biso 1.000000     C
    C   1.0     0.885462     0.328061     0.204677  Biso 1.000000     C
    C   1.0     0.452529     0.386076     0.251946  Biso 1.000000     C
    C   1.0     0.952528     0.386076     0.251946  Biso 1.000000     C
    C   1.0     0.010562     0.492053     0.230720  Biso 1.000000     C
    C   1.0     0.510561     0.492053     0.230720  Biso 1.000000     C
    C   1.0     0.001821     0.540388     0.162413  Biso 1.000000     C
    C   1.0     0.501821     0.540388     0.162412  Biso 1.000000     C
    C   1.0     0.432396     0.483481     0.117137  Biso 1.000000     C
    C   1.0     0.932395     0.483480     0.117137  Biso 1.000000     C
    C   1.0     0.374350     0.377693     0.138619  Biso 1.000000     C
    C   1.0     0.874349     0.377693     0.138618  Biso 1.000000     C
    C   1.0     0.059319     0.681166     0.069762  Biso 1.000000     C
    C   1.0     0.559318     0.681166     0.069762  Biso 1.000000     C
    C   1.0     0.133040     0.789553     0.050881  Biso 1.000000     C
    C   1.0     0.633040     0.789553     0.050881  Biso 1.000000     C
    C   1.0     0.292446     0.191855     0.291892  Biso 1.000000     C
    C   1.0     0.792445     0.191854     0.291892  Biso 1.000000     C
    C   1.0     0.217145     0.080344     0.287650  Biso 1.000000     C
    C   1.0     0.717144     0.080344     0.287650  Biso 1.000000     C
    C   1.0     0.168144     0.134678     0.028394  Biso 1.000000     C
    C   1.0     0.668143     0.134678     0.028393  Biso 1.000000     C
    C   1.0     0.119977     0.190378     0.983497  Biso 1.000000     C
    C   1.0     0.619977     0.190379     0.983496  Biso 1.000000     C
    C   1.0     0.186481     0.391640     0.007224  Biso 1.000000     C
    C   1.0     0.686481     0.391641     0.007224  Biso 1.000000     C
    C   1.0     0.183856     0.482921     0.048440  Biso 1.000000     C
    C   1.0     0.683856     0.482922     0.048440  Biso 1.000000     C
    C   1.0     0.253461     0.409100     0.958706  Biso 1.000000     C
    C   1.0     0.753462     0.409101     0.958705  Biso 1.000000     C
    C   1.0     0.135457     0.328048     0.295330  Biso 1.000000     C
    C   1.0     0.635457     0.328048     0.295330  Biso 1.000000     C
    C   1.0     0.202524     0.386057     0.248059  Biso 1.000000     C
    C   1.0     0.702524     0.386057     0.248059  Biso 1.000000     C
    C   1.0     0.260558     0.492034     0.269285  Biso 1.000000     C
    C   1.0     0.760558     0.492033     0.269285  Biso 1.000000     C
    C   1.0     0.251819     0.540373     0.337594  Biso 1.000000     C
    C   1.0     0.751819     0.540372     0.337594  Biso 1.000000     C
    C   1.0     0.182394     0.483471     0.382871  Biso 1.000000     C
    C   1.0     0.682393     0.483470     0.382871  Biso 1.000000     C
    C   1.0     0.124346     0.377684     0.361390  Biso 1.000000     C
    C   1.0     0.624345     0.377683     0.361390  Biso 1.000000     C
    C   1.0     0.309321     0.681158     0.430243  Biso 1.000000     C
    C   1.0     0.809320     0.681158     0.430243  Biso 1.000000     C
    C   1.0     0.383041     0.789551     0.449117  Biso 1.000000     C
    C   1.0     0.883040     0.789550     0.449117  Biso 1.000000     C
    C   1.0     0.042435     0.191841     0.208118  Biso 1.000000     C
    C   1.0     0.542434     0.191841     0.208118  Biso 1.000000     C
    C   1.0     0.467137     0.080327     0.212359  Biso 1.000000     C
    C   1.0     0.967136     0.080327     0.212359  Biso 1.000000     C
    C   1.0     0.418139     0.134679     0.471612  Biso 1.000000     C
    C   1.0     0.918138     0.134679     0.471612  Biso 1.000000     C
    C   1.0     0.369974     0.190379     0.516530  Biso 1.000000     C
    C   1.0     0.869973     0.190379     0.516530  Biso 1.000000     C
    C   1.0     0.436478     0.391642     0.492785  Biso 1.000000     C
    C   1.0     0.936477     0.391641     0.492785  Biso 1.000000     C
    C   1.0     0.433856     0.482919     0.451567  Biso 1.000000     C
    C   1.0     0.933855     0.482919     0.451567  Biso 1.000000     C
    C   1.0     0.503458     0.409102     0.541320  Biso 1.000000     C
    C   1.0     0.000000     0.409102     0.541320  Biso 1.000000     C
    C   1.0     0.114542     0.671896     0.795335  Biso 1.000000     C
    C   1.0     0.614541     0.671896     0.795335  Biso 1.000000     C
    C   1.0     0.047476     0.613879     0.748067  Biso 1.000000     C
    C   1.0     0.547475     0.613879     0.748067  Biso 1.000000     C
    C   1.0     0.489445     0.507901     0.769292  Biso 1.000000     C
    C   1.0     0.989444     0.507901     0.769292  Biso 1.000000     C
    C   1.0     0.498186     0.459565     0.837600  Biso 1.000000     C
    C   1.0     0.998186     0.459566     0.837599  Biso 1.000000     C
    C   1.0     0.067610     0.516477     0.882876  Biso 1.000000     C
    C   1.0     0.567609     0.516477     0.882876  Biso 1.000000     C
    C   1.0     0.125654     0.622266     0.861395  Biso 1.000000     C
    C   1.0     0.625654     0.622266     0.861395  Biso 1.000000     C
    C   1.0     0.440686     0.318789     0.930251  Biso 1.000000     C
    C   1.0     0.940685     0.318789     0.930250  Biso 1.000000     C
    C   1.0     0.366962     0.210403     0.949129  Biso 1.000000     C
    C   1.0     0.866961     0.210403     0.949128  Biso 1.000000     C
    C   1.0     0.207557     0.808106     0.708120  Biso 1.000000     C
    C   1.0     0.707556     0.808106     0.708120  Biso 1.000000     C
    C   1.0     0.282856     0.919619     0.712362  Biso 1.000000     C
    C   1.0     0.782855     0.919618     0.712361  Biso 1.000000     C
    C   1.0     0.331864     0.865294     0.971614  Biso 1.000000     C
    C   1.0     0.831864     0.865294     0.971613  Biso 1.000000     C
    C   1.0     0.380036     0.809605     0.016515  Biso 1.000000     C
    C   1.0     0.880036     0.809606     0.016515  Biso 1.000000     C
    C   1.0     0.313535     0.608343     0.992792  Biso 1.000000     C
    C   1.0     0.813536     0.608343     0.992791  Biso 1.000000     C
    C   1.0     0.316160     0.517062     0.951575  Biso 1.000000     C
    C   1.0     0.816160     0.517063     0.951574  Biso 1.000000     C
    C   1.0     0.246554     0.590883     0.041309  Biso 1.000000     C
    C   1.0     0.746554     0.590884     0.041309  Biso 1.000000     C
    O   1.0     0.420055     0.783583     0.718270  Biso 1.000000     O
    O   1.0     0.920054     0.783583     0.718269  Biso 1.000000     O
    O   1.0     0.072634     0.950696     0.498405  Biso 1.000000     O
    O   1.0     0.572633     0.950696     0.498404  Biso 1.000000     O
    O   1.0     0.054555     0.830272     0.592883  Biso 1.000000     O
    O   1.0     0.554554     0.830272     0.592883  Biso 1.000000     O
    O   1.0     0.131441     0.709597     0.516543  Biso 1.000000     O
    O   1.0     0.631440     0.709597     0.516543  Biso 1.000000     O
    O   1.0     0.040356     0.983027     0.731701  Biso 1.000000     O
    O   1.0     0.540355     0.983027     0.731701  Biso 1.000000     O
    O   1.0     0.186237     0.357470     0.643792  Biso 1.000000     O
    O   1.0     0.686237     0.357469     0.643792  Biso 1.000000     O
    O   1.0     0.070280     0.150865     0.602251  Biso 1.000000     O
    O   1.0     0.570280     0.150864     0.602251  Biso 1.000000     O
    O   1.0     0.110350     0.188014     0.481214  Biso 1.000000     O
    O   1.0     0.610349     0.188014     0.481214  Biso 1.000000     O
    O   1.0     0.083809     0.943108     0.842275  Biso 1.000000     O
    O   1.0     0.583809     0.943108     0.842275  Biso 1.000000     O
    O   1.0     0.329949     0.216392     0.218263  Biso 1.000000     O
    O   1.0     0.829948     0.216392     0.218263  Biso 1.000000     O
    O   1.0     0.177363     0.049262     0.998430  Biso 1.000000     O
    O   1.0     0.677363     0.049262     0.998428  Biso 1.000000     O
    O   1.0     0.195463     0.169718     0.092879  Biso 1.000000     O
    O   1.0     0.695463     0.169717     0.092878  Biso 1.000000     O
    O   1.0     0.118580     0.290383     0.016541  Biso 1.000000     O
    O   1.0     0.618580     0.290384     0.016540  Biso 1.000000     O
    O   1.0     0.209641     0.016956     0.231698  Biso 1.000000     O
    O   1.0     0.709640     0.016956     0.231697  Biso 1.000000     O
    O   1.0     0.063772     0.642496     0.143780  Biso 1.000000     O
    O   1.0     0.563772     0.642496     0.143780  Biso 1.000000     O
    O   1.0     0.179722     0.849105     0.102235  Biso 1.000000     O
    O   1.0     0.679721     0.849105     0.102234  Biso 1.000000     O
    O   1.0     0.139647     0.811940     0.981217  Biso 1.000000     O
    O   1.0     0.639647     0.811939     0.981217  Biso 1.000000     O
    O   1.0     0.166212     0.056876     0.342290  Biso 1.000000     O
    O   1.0     0.666211     0.056875     0.342289  Biso 1.000000     O
    O   1.0     0.079943     0.216378     0.281744  Biso 1.000000     O
    O   1.0     0.579942     0.216377     0.281744  Biso 1.000000     O
    O   1.0     0.427364     0.049266     0.501593  Biso 1.000000     O
    O   1.0     0.927363     0.049266     0.501593  Biso 1.000000     O
    O   1.0     0.445457     0.169713     0.407126  Biso 1.000000     O
    O   1.0     0.945456     0.169713     0.407126  Biso 1.000000     O
    O   1.0     0.368576     0.290385     0.483471  Biso 1.000000     O
    O   1.0     0.868575     0.290385     0.483471  Biso 1.000000     O
    O   1.0     0.459639     0.016935     0.268305  Biso 1.000000     O
    O   1.0     0.959638     0.016935     0.268305  Biso 1.000000     O
    O   1.0     0.313773     0.642479     0.356225  Biso 1.000000     O
    O   1.0     0.813773     0.642478     0.356225  Biso 1.000000     O
    O   1.0     0.429717     0.849100     0.397759  Biso 1.000000     O
    O   1.0     0.929716     0.849100     0.397759  Biso 1.000000     O
    O   1.0     0.389653     0.811944     0.518798  Biso 1.000000     O
    O   1.0     0.889652     0.811944     0.518798  Biso 1.000000     O
    O   1.0     0.416201     0.056857     0.157724  Biso 1.000000     O
    O   1.0     0.916200     0.056857     0.157724  Biso 1.000000     O
    O   1.0     0.170055     0.783565     0.781749  Biso 1.000000     O
    O   1.0     0.670054     0.783565     0.781749  Biso 1.000000     O
    O   1.0     0.322637     0.950706     0.001575  Biso 1.000000     O
    O   1.0     0.822637     0.950707     0.001573  Biso 1.000000     O
    O   1.0     0.304548     0.830249     0.907130  Biso 1.000000     O
    O   1.0     0.804547     0.830248     0.907129  Biso 1.000000     O
    O   1.0     0.381438     0.709599     0.983477  Biso 1.000000     O
    O   1.0     0.881438     0.709600     0.983477  Biso 1.000000     O
    O   1.0     0.290361     0.983005     0.768315  Biso 1.000000     O
    O   1.0     0.790360     0.983005     0.768315  Biso 1.000000     O
    O   1.0     0.436239     0.357453     0.856230  Biso 1.000000     O
    O   1.0     0.936238     0.357453     0.856230  Biso 1.000000     O
    O   1.0     0.320280     0.150858     0.897773  Biso 1.000000     O
    O   1.0     0.820279     0.150858     0.897773  Biso 1.000000     O
    O   1.0     0.360352     0.188011     0.018792  Biso 1.000000     O
    O   1.0     0.860352     0.188010     0.018792  Biso 1.000000     O
    O   1.0     0.333788     0.943090     0.657721  Biso 1.000000     O
    O   1.0     0.833787     0.943090     0.657720  Biso 1.000000     O
   La   1.0     0.466953     0.954059     0.611035  Biso 1.000000    La
   La   1.0     0.966952     0.954059     0.611035  Biso 1.000000    La
   La   1.0     0.283047     0.045908     0.111030  Biso 1.000000    La
   La   1.0     0.783046     0.045908     0.111029  Biso 1.000000    La
   La   1.0     0.033046     0.045906     0.388972  Biso 1.000000    La
   La   1.0     0.533045     0.045906     0.388972  Biso 1.000000    La
   La   1.0     0.216955     0.954052     0.888982  Biso 1.000000    La
   La   1.0     0.716955     0.954052     0.888981  Biso 1.000000    La
