#======================================================================

# CRYSTAL DATA

#----------------------------------------------------------------------

data_VESTA_phase_1


_pd_phase_name                         MOF
_cell_length_a                         12.73600
_cell_length_b                         16.87100
_cell_length_c                         22.25100
_cell_angle_alpha                      90.09600
_cell_angle_beta                       88.76600
_cell_angle_gamma                      90.02900
_symmetry_space_group_name_H-M         "P 1"
_symmetry_Int_Tables_number            1

loop_
_symmetry_equiv_pos_as_xyz
   "x, y, z"

loop_
   _atom_site_label
   _atom_site_occupancy
   _atom_site_fract_x
   _atom_site_fract_y
   _atom_site_fract_z
   _atom_site_adp_type
   _atom_site_B_iso_or_equiv
   _atom_site_type_symbol
    H   1.0     0.710683     0.417856     0.643114  Biso 1.000000     H
    H   1.0     0.542028     0.456861     0.596169  Biso 1.000000     H
    H   1.0     0.460748     0.586894     0.620683  Biso 1.000000     H
    H   1.0     0.720925     0.642282     0.734549  Biso 1.000000     H
    H   1.0     0.391993     0.867231     0.957259  Biso 1.000000     H
    H   1.0     0.088175     0.776334     0.000000  Biso 1.000000     H
    H   1.0     0.017494     0.813089     0.912456  Biso 1.000000     H
    H   1.0     0.133828     0.877294     0.835489  Biso 1.000000     H
    H   1.0     0.211290     0.014913     0.757321  Biso 1.000000     H
    H   1.0     0.966424     0.082142     0.636422  Biso 1.000000     H
    H   1.0     0.054601     0.212421     0.619271  Biso 1.000000     H
    H   1.0     0.220781     0.242728     0.670985  Biso 1.000000     H
    H   1.0     0.698933     0.249464     0.552240  Biso 1.000000     H
    H   1.0     0.602805     0.179909     0.470381  Biso 1.000000     H
    H   1.0     0.467138     0.078843     0.496638  Biso 1.000000     H
    H   1.0     0.531867     0.109828     0.684082  Biso 1.000000     H
    H   1.0     0.789453     0.918516     0.857543  Biso 1.000000     H
    H   1.0     0.957737     0.958026     0.904840  Biso 1.000000     H
    H   1.0     0.039339     0.087826     0.880125  Biso 1.000000     H
    H   1.0     0.780151     0.142112     0.765451  Biso 1.000000     H
    H   1.0     0.108665     0.367553     0.542938  Biso 1.000000     H
    H   1.0     0.411288     0.275038     0.487860  Biso 1.000000     H
    H   1.0     0.482701     0.311216     0.587140  Biso 1.000000     H
    H   1.0     0.367337     0.376059     0.664430  Biso 1.000000     H
    H   1.0     0.290169     0.514876     0.742784  Biso 1.000000     H
    H   1.0     0.534275     0.582495     0.864308  Biso 1.000000     H
    H   1.0     0.446131     0.712844     0.881321  Biso 1.000000     H
    H   1.0     0.280424     0.743010     0.829191  Biso 1.000000     H
    H   1.0     0.801560     0.749473     0.947856  Biso 1.000000     H
    H   1.0     0.896702     0.679761     0.029801  Biso 1.000000     H
    H   1.0     0.032512     0.578771     0.003662  Biso 1.000000     H
    H   1.0     0.970159     0.610309     0.816075  Biso 1.000000     H
    H   1.0     0.289363     0.582127     0.356903  Biso 1.000000     H
    H   1.0     0.458009     0.543117     0.403858  Biso 1.000000     H
    H   1.0     0.539291     0.413086     0.379344  Biso 1.000000     H
    H   1.0     0.279136     0.357707     0.265459  Biso 1.000000     H
    H   1.0     0.608072     0.132758     0.042749  Biso 1.000000     H
    H   1.0     0.911889     0.223656    -0.011696  Biso 1.000000     H
    H   1.0     0.982571     0.186903     0.087551  Biso 1.000000     H
    H   1.0     0.866237     0.122700     0.164520  Biso 1.000000     H
    H   1.0     0.788773     0.985074     0.242687  Biso 1.000000     H
    H   1.0     0.033631     0.917845     0.363590  Biso 1.000000     H
    H   1.0     0.945452     0.787567     0.380741  Biso 1.000000     H
    H   1.0     0.779275     0.757260     0.329025  Biso 1.000000     H
    H   1.0     0.301132     0.750520     0.447769  Biso 1.000000     H
    H   1.0     0.397268     0.820069     0.529628  Biso 1.000000     H
    H   1.0     0.532935     0.921134     0.503371  Biso 1.000000     H
    H   1.0     0.468192     0.890160     0.315927  Biso 1.000000     H
    H   1.0     0.210614     0.081474     0.142467  Biso 1.000000     H
    H   1.0     0.042326     0.041966     0.095173  Biso 1.000000     H
    H   1.0     0.960724     0.912166     0.119889  Biso 1.000000     H
    H   1.0     0.219916     0.857877     0.234558  Biso 1.000000     H
    H   1.0     0.891394     0.632437     0.457070  Biso 1.000000     H
    H   1.0     0.588761     0.724929     0.512154  Biso 1.000000     H
    H   1.0     0.517348     0.688750     0.412874  Biso 1.000000     H
    H   1.0     0.632717     0.623917     0.335581  Biso 1.000000     H
    H   1.0     0.709892     0.485113     0.257223  Biso 1.000000     H
    H   1.0     0.465765     0.417487     0.135716  Biso 1.000000     H
    H   1.0     0.553903     0.287135     0.118705  Biso 1.000000     H
    H   1.0     0.719619     0.256972     0.170827  Biso 1.000000     H
    H   1.0     0.198499     0.250518     0.052153  Biso 1.000000     H
    H   1.0     0.103354     0.320229     0.970208  Biso 1.000000     H
    H   1.0     0.967542     0.421217     0.996347  Biso 1.000000     H
    H   1.0     0.029897     0.389680     0.183934  Biso 1.000000     H
    C   1.0     0.826549     0.505346     0.718226  Biso 1.000000     C
    C   1.0     0.725681     0.528798     0.690916  Biso 1.000000     C
    C   1.0     0.675486     0.475530     0.652587  Biso 1.000000     C
    C   1.0     0.580976     0.497288     0.626756  Biso 1.000000     C
    C   1.0     0.535389     0.570380     0.640076  Biso 1.000000     C
    C   1.0     0.584832     0.624001     0.678945  Biso 1.000000     C
    C   1.0     0.530756     0.698725     0.693037  Biso 1.000000     C
    C   1.0     0.681049     0.602961     0.703704  Biso 1.000000     C
    C   1.0     0.342460     0.907865     0.843683  Biso 1.000000     C
    C   1.0     0.270620     0.875148     0.891363  Biso 1.000000     C
    C   1.0     0.309873     0.855381     0.947868  Biso 1.000000     C
    C   1.0     0.244107     0.819908     0.991517  Biso 1.000000     C
    C   1.0     0.282376     0.797738     0.050820  Biso 1.000000     C
    C   1.0     0.138596     0.804746     0.977993  Biso 1.000000     C
    C   1.0     0.099282     0.825528     0.922274  Biso 1.000000     C
    C   1.0     0.164544     0.860891     0.879005  Biso 1.000000     C
    C   1.0     0.320685     0.152893     0.750872  Biso 1.000000     C
    C   1.0     0.225085     0.131036     0.717837  Biso 1.000000     C
    C   1.0     0.177235     0.056957     0.726212  Biso 1.000000     C
    C   1.0     0.084182     0.039292     0.696582  Biso 1.000000     C
    C   1.0     0.029124     0.963568     0.704733  Biso 1.000000     C
    C   1.0     0.039381     0.096192     0.658763  Biso 1.000000     C
    C   1.0     0.088535     0.169052     0.649443  Biso 1.000000     C
    C   1.0     0.181190     0.186475     0.678764  Biso 1.000000     C
    C   1.0     0.673512     0.229759     0.671294  Biso 1.000000     C
    C   1.0     0.619465     0.184976     0.623084  Biso 1.000000     C
    C   1.0     0.640429     0.204114     0.562629  Biso 1.000000     C
    C   1.0     0.586224     0.165528     0.517357  Biso 1.000000     C
    C   1.0     0.511035     0.108190     0.531745  Biso 1.000000     C
    C   1.0     0.490898     0.086984     0.592051  Biso 1.000000     C
    C   1.0     0.410890     0.026611     0.605361  Biso 1.000000     C
    C   1.0     0.546053     0.125637     0.637318  Biso 1.000000     C
    C   1.0     0.674294     0.000000     0.781888  Biso 1.000000     C
    C   1.0     0.775001     0.029011     0.809366  Biso 1.000000     C
    C   1.0     0.824795     0.976101     0.847992  Biso 1.000000     C
    C   1.0     0.919105     0.998141     0.874012  Biso 1.000000     C
    C   1.0     0.964870     0.071125     0.860586  Biso 1.000000     C
    C   1.0     0.915803     0.124373     0.821432  Biso 1.000000     C
    C   1.0     0.970066     0.198967     0.807224  Biso 1.000000     C
    C   1.0     0.819775     0.103076     0.796490  Biso 1.000000     C
    C   1.0     0.159039     0.407767     0.656478  Biso 1.000000     C
    C   1.0     0.230402     0.374738     0.608667  Biso 1.000000     C
    C   1.0     0.190702     0.355244     0.552164  Biso 1.000000     C
    C   1.0     0.255917     0.319485     0.508328  Biso 1.000000     C
    C   1.0     0.217209     0.297649     0.448984  Biso 1.000000     C
    C   1.0     0.361295     0.303697     0.521707  Biso 1.000000     C
    C   1.0     0.401033     0.324165     0.577448  Biso 1.000000     C
    C   1.0     0.336334     0.359875     0.620888  Biso 1.000000     C
    C   1.0     0.180845     0.652890     0.749136  Biso 1.000000     C
    C   1.0     0.276274     0.631140     0.782298  Biso 1.000000     C
    C   1.0     0.324084     0.557029     0.773984  Biso 1.000000     C
    C   1.0     0.416914     0.539461     0.803811  Biso 1.000000     C
    C   1.0     0.472010     0.463746     0.795698  Biso 1.000000     C
    C   1.0     0.461495     0.596481     0.841784  Biso 1.000000     C
    C   1.0     0.412380     0.669379     0.851030  Biso 1.000000     C
    C   1.0     0.319979     0.686718     0.821491  Biso 1.000000     C
    C   1.0     0.828271     0.729868     0.828768  Biso 1.000000     C
    C   1.0     0.881837     0.685190     0.877050  Biso 1.000000     C
    C   1.0     0.860192     0.704197     0.937504  Biso 1.000000     C
    C   1.0     0.913854     0.665518     0.982832  Biso 1.000000     C
    C   1.0     0.989136     0.608208     0.968496  Biso 1.000000     C
    C   1.0     0.009910     0.587158     0.908174  Biso 1.000000     C
    C   1.0     0.089935     0.526810     0.894832  Biso 1.000000     C
    C   1.0     0.955379     0.625935     0.862858  Biso 1.000000     C
    C   1.0     0.173508     0.494641     0.281783  Biso 1.000000     C
    C   1.0     0.274373     0.471188     0.309096  Biso 1.000000     C
    C   1.0     0.324561     0.524453     0.347431  Biso 1.000000     C
    C   1.0     0.419066     0.502693     0.373266  Biso 1.000000     C
    C   1.0     0.464655     0.429601     0.359946  Biso 1.000000     C
    C   1.0     0.415220     0.375984     0.321071  Biso 1.000000     C
    C   1.0     0.469299     0.301261     0.306979  Biso 1.000000     C
    C   1.0     0.319007     0.397026     0.296307  Biso 1.000000     C
    C   1.0     0.657603     0.092127     0.156325  Biso 1.000000     C
    C   1.0     0.729445     0.124843     0.108645  Biso 1.000000     C
    C   1.0     0.690192     0.144609     0.052140  Biso 1.000000     C
    C   1.0     0.755957     0.180081     0.008491  Biso 1.000000     C
    C   1.0     0.717687     0.202250     0.949187  Biso 1.000000     C
    C   1.0     0.861468     0.195244     0.022014  Biso 1.000000     C
    C   1.0     0.900782     0.174463     0.077734  Biso 1.000000     C
    C   1.0     0.835521     0.139101     0.121003  Biso 1.000000     C
    C   1.0     0.679376     0.847095     0.249136  Biso 1.000000     C
    C   1.0     0.774975     0.868952     0.282172  Biso 1.000000     C
    C   1.0     0.822826     0.943030     0.273797  Biso 1.000000     C
    C   1.0     0.915878     0.960695     0.303428  Biso 1.000000     C
    C   1.0     0.970936     0.036418     0.295277  Biso 1.000000     C
    C   1.0     0.960675     0.903795     0.341248  Biso 1.000000     C
    C   1.0     0.911521     0.830936     0.350568  Biso 1.000000     C
    C   1.0     0.818866     0.813513     0.321245  Biso 1.000000     C
    C   1.0     0.326547     0.770229     0.328715  Biso 1.000000     C
    C   1.0     0.380597     0.815010     0.376925  Biso 1.000000     C
    C   1.0     0.359636     0.795869     0.437379  Biso 1.000000     C
    C   1.0     0.413846     0.834452     0.482652  Biso 1.000000     C
    C   1.0     0.489035     0.891790     0.468263  Biso 1.000000     C
    C   1.0     0.509168     0.912998     0.407958  Biso 1.000000     C
    C   1.0     0.589176     0.973372     0.394648  Biso 1.000000     C
    C   1.0     0.454009     0.874349     0.362691  Biso 1.000000     C
    C   1.0     0.325776    -0.005434     0.218120  Biso 1.000000     C
    C   1.0     0.225066     0.970979     0.190644  Biso 1.000000     C
    C   1.0     0.175271     0.023889     0.152019  Biso 1.000000     C
    C   1.0     0.080960     0.001850     0.126000  Biso 1.000000     C
    C   1.0     0.035194     0.928867     0.139426  Biso 1.000000     C
    C   1.0     0.084261     0.875618     0.178580  Biso 1.000000     C
    C   1.0     0.029997     0.801024     0.192786  Biso 1.000000     C
    C   1.0     0.180291     0.896914     0.203521  Biso 1.000000     C
    C   1.0     0.841018     0.592221     0.343530  Biso 1.000000     C
    C   1.0     0.769654     0.625245     0.391342  Biso 1.000000     C
    C   1.0     0.809354     0.644740     0.447844  Biso 1.000000     C
    C   1.0     0.744138     0.680494     0.491682  Biso 1.000000     C
    C   1.0     0.782846     0.702333     0.551026  Biso 1.000000     C
    C   1.0     0.638756     0.696275     0.478305  Biso 1.000000     C
    C   1.0     0.599018     0.675806     0.422565  Biso 1.000000     C
    C   1.0     0.663719     0.640102     0.379123  Biso 1.000000     C
    C   1.0     0.819211     0.347097     0.250874  Biso 1.000000     C
    C   1.0     0.723778     0.368845     0.217714  Biso 1.000000     C
    C   1.0     0.675972     0.442958     0.226027  Biso 1.000000     C
    C   1.0     0.583137     0.460525     0.196204  Biso 1.000000     C
    C   1.0     0.528045     0.536242     0.204316  Biso 1.000000     C
    C   1.0     0.538549     0.403502     0.158236  Biso 1.000000     C
    C   1.0     0.587660     0.330602     0.148992  Biso 1.000000     C
    C   1.0     0.680066     0.313264     0.178527  Biso 1.000000     C
    C   1.0     0.171787     0.270122     0.171241  Biso 1.000000     C
    C   1.0     0.118220     0.314800     0.122959  Biso 1.000000     C
    C   1.0     0.139865     0.295794     0.062505  Biso 1.000000     C
    C   1.0     0.086202     0.334471     0.017177  Biso 1.000000     C
    C   1.0     0.010919     0.391781     0.031513  Biso 1.000000     C
    C   1.0     0.990145     0.412831     0.091835  Biso 1.000000     C
    C   1.0     0.910120     0.473177     0.105178  Biso 1.000000     C
    C   1.0     0.044678     0.374054     0.137151  Biso 1.000000     C
    N   1.0     0.571245     0.766489     0.716551  Biso 1.000000     N
    N   1.0     0.490233     0.817331     0.721966  Biso 1.000000     N
    N   1.0     0.404864     0.781027     0.702436  Biso 1.000000     N
    N   1.0     0.427031     0.707578     0.683935  Biso 1.000000     N
    N   1.0     0.375223     0.820384     0.073614  Biso 1.000000     N
    N   1.0     0.375424     0.787338     0.128082  Biso 1.000000     N
    N   1.0     0.285857     0.746269     0.138079  Biso 1.000000     N
    N   1.0     0.226312     0.751987     0.090069  Biso 1.000000     N
    N   1.0     0.072736     0.890490     0.710602  Biso 1.000000     N
    N   1.0     0.991585     0.839481     0.716273  Biso 1.000000     N
    N   1.0     0.903397     0.881032     0.714032  Biso 1.000000     N
    N   1.0     0.923666     0.958170     0.706477  Biso 1.000000     N
    N   1.0     0.401453     0.981261     0.655369  Biso 1.000000     N
    N   1.0     0.315179     0.935868     0.645800  Biso 1.000000     N
    N   1.0     0.275096     0.952674     0.592787  Biso 1.000000     N
    N   1.0     0.333865     0.009159     0.566561  Biso 1.000000     N
    N   1.0     0.929705     0.266651     0.783720  Biso 1.000000     N
    N   1.0     0.010826     0.317377     0.778142  Biso 1.000000     N
    N   1.0     0.096152     0.281098     0.797620  Biso 1.000000     N
    N   1.0     0.073823     0.207769     0.816193  Biso 1.000000     N
    N   1.0     0.124314     0.320487     0.426444  Biso 1.000000     N
    N   1.0     0.123753     0.287680     0.371809  Biso 1.000000     N
    N   1.0     0.213157     0.246540     0.361494  Biso 1.000000     N
    N   1.0     0.272946     0.252001     0.409429  Biso 1.000000     N
    N   1.0     0.428422     0.390628     0.789643  Biso 1.000000     N
    N   1.0     0.509635     0.339666     0.784028  Biso 1.000000     N
    N   1.0     0.597802     0.381273     0.786486  Biso 1.000000     N
    N   1.0     0.577513     0.458416     0.794121  Biso 1.000000     N
    N   1.0     0.099563     0.481525     0.844683  Biso 1.000000     N
    N   1.0     0.185770     0.436158     0.854237  Biso 1.000000     N
    N   1.0     0.225581     0.452873     0.907382  Biso 1.000000     N
    N   1.0     0.166758     0.509338     0.933691  Biso 1.000000     N
    N   1.0     0.428814     0.233498     0.283462  Biso 1.000000     N
    N   1.0     0.509829     0.182657     0.278048  Biso 1.000000     N
    N   1.0     0.595194     0.218961     0.297581  Biso 1.000000     N
    N   1.0     0.573024     0.292409     0.316083  Biso 1.000000     N
    N   1.0     0.624840     0.179604     0.926394  Biso 1.000000     N
    N   1.0     0.624638     0.212649     0.871927  Biso 1.000000     N
    N   1.0     0.714204     0.253719     0.861929  Biso 1.000000     N
    N   1.0     0.773750     0.248002     0.909938  Biso 1.000000     N
    N   1.0     0.927325     0.109497     0.289408  Biso 1.000000     N
    N   1.0     0.008477     0.160505     0.283735  Biso 1.000000     N
    N   1.0     0.096664     0.118954     0.285976  Biso 1.000000     N
    N   1.0     0.076395     0.041816     0.293531  Biso 1.000000     N
    N   1.0     0.598611     0.018724     0.344640  Biso 1.000000     N
    N   1.0     0.684886     0.064116     0.354209  Biso 1.000000     N
    N   1.0     0.724971     0.047308     0.407221  Biso 1.000000     N
    N   1.0     0.666203     0.990822     0.433447  Biso 1.000000     N
    N   1.0     0.070356     0.733339     0.216289  Biso 1.000000     N
    N   1.0     0.989234     0.682612     0.221865  Biso 1.000000     N
    N   1.0     0.903909     0.718893     0.202388  Biso 1.000000     N
    N   1.0     0.926240     0.792223     0.183817  Biso 1.000000     N
    N   1.0     0.875743     0.679497     0.573565  Biso 1.000000     N
    N   1.0     0.876304     0.712306     0.628199  Biso 1.000000     N
    N   1.0     0.786900     0.753445     0.638514  Biso 1.000000     N
    N   1.0     0.727109     0.747981     0.590580  Biso 1.000000     N
    N   1.0     0.571635     0.609359     0.210369  Biso 1.000000     N
    N   1.0     0.490423     0.660323     0.215983  Biso 1.000000     N
    N   1.0     0.402256     0.618716     0.213527  Biso 1.000000     N
    N   1.0     0.422542     0.541573     0.205893  Biso 1.000000     N
    N   1.0     0.900492     0.518464     0.155326  Biso 1.000000     N
    N   1.0     0.814285     0.563831     0.145772  Biso 1.000000     N
    N   1.0     0.774472     0.547114     0.092628  Biso 1.000000     N
    N   1.0     0.833295     0.490648     0.066320  Biso 1.000000     N
    O   1.0     0.902227     0.554848     0.721526  Biso 1.000000     O
    O   1.0     0.840661     0.434351     0.737230  Biso 1.000000     O
    O   1.0     0.435536     0.926805     0.854262  Biso 1.000000     O
    O   1.0     0.305946     0.916293     0.789436  Biso 1.000000     O
    O   1.0     0.385904     0.100822     0.768528  Biso 1.000000     O
    O   1.0     0.342180     0.226527     0.760636  Biso 1.000000     O
    O   1.0     0.649011     0.214886     0.727233  Biso 1.000000     O
    O   1.0     0.742157     0.281266     0.658851  Biso 1.000000     O
    O   1.0     0.598858     0.055036     0.778428  Biso 1.000000     O
    O   1.0     0.659921     0.934354     0.762891  Biso 1.000000     O
    O   1.0     0.066032     0.426891     0.645938  Biso 1.000000     O
    O   1.0     0.195716     0.416233     0.710681  Biso 1.000000     O
    O   1.0     0.115576     0.600744     0.731456  Biso 1.000000     O
    O   1.0     0.159535     0.726472     0.739328  Biso 1.000000     O
    O   1.0     0.852922     0.714820     0.772876  Biso 1.000000     O
    O   1.0     0.759675     0.781467     0.841171  Biso 1.000000     O
    O   1.0     0.097829     0.445140     0.278481  Biso 1.000000     O
    O   1.0     0.159398     0.565637     0.262779  Biso 1.000000     O
    O   1.0     0.564527     0.073186     0.145745  Biso 1.000000     O
    O   1.0     0.694116     0.083698     0.210572  Biso 1.000000     O
    O   1.0     0.614159     0.899167     0.231479  Biso 1.000000     O
    O   1.0     0.657878     0.773462     0.239371  Biso 1.000000     O
    O   1.0     0.351047     0.785103     0.272775  Biso 1.000000     O
    O   1.0     0.257900     0.718724     0.341157  Biso 1.000000     O
    O   1.0     0.401210     0.944951     0.221580  Biso 1.000000     O
    O   1.0     0.340157     0.065636     0.237114  Biso 1.000000     O
    O   1.0     0.934026     0.573098     0.354069  Biso 1.000000     O
    O   1.0     0.804341     0.583757     0.289327  Biso 1.000000     O
    O   1.0     0.884480     0.399244     0.268551  Biso 1.000000     O
    O   1.0     0.840524     0.273515     0.260681  Biso 1.000000     O
    O   1.0     0.147137     0.285169     0.227133  Biso 1.000000     O
    O   1.0     0.240382     0.218522     0.158837  Biso 1.000000     O
   Cd   1.0     0.472965     0.960284     0.749039  Biso 1.000000    Cd
   Cd   1.0     0.242900     0.844082     0.711123  Biso 1.000000    Cd
   Cd   1.0     0.741106     0.815989     0.732843  Biso 1.000000    Cd
   Cd   1.0     0.482871     0.809043     0.204310  Biso 1.000000    Cd
   Cd   1.0     0.028039     0.460320     0.750953  Biso 1.000000    Cd
   Cd   1.0     0.258242     0.344098     0.788946  Biso 1.000000    Cd
   Cd   1.0     0.759988     0.316120     0.767648  Biso 1.000000    Cd
   Cd   1.0     0.015777     0.309343     0.295805  Biso 1.000000    Cd
   Cd   1.0     0.527103     0.039705     0.250970  Biso 1.000000    Cd
   Cd   1.0     0.757160     0.155906     0.288889  Biso 1.000000    Cd
   Cd   1.0     0.258955     0.183997     0.267164  Biso 1.000000    Cd
   Cd   1.0     0.517188     0.190945     0.795698  Biso 1.000000    Cd
   Cd   1.0     0.972019     0.539670     0.249055  Biso 1.000000    Cd
   Cd   1.0     0.741816     0.655892     0.211062  Biso 1.000000    Cd
   Cd   1.0     0.240071     0.683869     0.232360  Biso 1.000000    Cd
   Cd   1.0     0.984282     0.690645     0.704204  Biso 1.000000    Cd
