#======================================================================

# CRYSTAL DATA

#----------------------------------------------------------------------

data_VESTA_phase_1


_pd_phase_name                         MOF
_cell_length_a                         14.24300
_cell_length_b                         18.84900
_cell_length_c                         18.88000
_cell_angle_alpha                      82.24900
_cell_angle_beta                       68.13300
_cell_angle_gamma                      68.16900
_symmetry_space_group_name_H-M         "P 1"
_symmetry_Int_Tables_number            1

loop_
_symmetry_equiv_pos_as_xyz
   "x, y, z"

loop_
   _atom_site_label
   _atom_site_occupancy
   _atom_site_fract_x
   _atom_site_fract_y
   _atom_site_fract_z
   _atom_site_adp_type
   _atom_site_B_iso_or_equiv
   _atom_site_type_symbol
    H   1.0     0.691820     0.060888     0.196640  Biso 1.000000     H
    H   1.0     0.070493     0.099396     0.163664  Biso 1.000000     H
    H   1.0     0.721738     0.270774     0.113001  Biso 1.000000     H
    H   1.0     0.720370     0.253366     0.022756  Biso 1.000000     H
    H   1.0     0.447172     0.189000     0.289908  Biso 1.000000     H
    H   1.0     0.311876     0.223176     0.225637  Biso 1.000000     H
    H   1.0     0.365991     0.263597     0.087237  Biso 1.000000     H
    H   1.0     0.553269     0.263885     0.020051  Biso 1.000000     H
    H   1.0     0.472052     0.981297     0.237303  Biso 1.000000     H
    H   1.0     0.555657     0.000000     0.263685  Biso 1.000000     H
    H   1.0     0.577728     0.914455     0.267095  Biso 1.000000     H
    H   1.0     0.659111     0.835973     0.146416  Biso 1.000000     H
    H   1.0     0.686010     0.880859     0.055288  Biso 1.000000     H
    H   1.0     0.551372     0.898470     0.118063  Biso 1.000000     H
    H   1.0     0.583836     0.082060     0.131497  Biso 1.000000     H
    H   1.0     0.512845     0.036613     0.105086  Biso 1.000000     H
    H   1.0     0.648430     0.026548     0.046864  Biso 1.000000     H
    H   1.0     0.940604     0.942810     0.808843  Biso 1.000000     H
    H   1.0     0.326372     0.911558     0.838590  Biso 1.000000     H
    H   1.0     0.106718     0.735274     0.886970  Biso 1.000000     H
    H   1.0    -0.001451     0.748661     0.976851  Biso 1.000000     H
    H   1.0     0.932834     0.808983     0.707608  Biso 1.000000     H
    H   1.0     0.768457     0.773526     0.770376  Biso 1.000000     H
    H   1.0     0.721771     0.735895     0.909577  Biso 1.000000     H
    H   1.0     0.839158     0.738614     0.978807  Biso 1.000000     H
    H   1.0     0.681467     0.040618     0.755666  Biso 1.000000     H
    H   1.0     0.823568     0.005678     0.729949  Biso 1.000000     H
    H   1.0     0.751718     0.105995     0.737986  Biso 1.000000     H
    H   1.0     0.629595     0.168323     0.865365  Biso 1.000000     H
    H   1.0     0.618279     0.114310     0.951227  Biso 1.000000     H
    H   1.0     0.560983     0.102682     0.886822  Biso 1.000000     H
    H   1.0     0.793177     0.921951     0.850561  Biso 1.000000     H
    H   1.0     0.651513     0.965955     0.878554  Biso 1.000000     H
    H   1.0     0.718245     0.965462     0.941902  Biso 1.000000     H
    H   1.0     0.101996     0.203967     0.942771  Biso 1.000000     H
    H   1.0     0.755983     0.168400     0.905737  Biso 1.000000     H
    H   1.0     0.089452     0.184349     0.786529  Biso 1.000000     H
    H   1.0     0.169194     0.100127     0.728208  Biso 1.000000     H
    H   1.0     0.332663     0.280877     0.790681  Biso 1.000000     H
    H   1.0     0.508161     0.175686     0.768783  Biso 1.000000     H
    H   1.0     0.520857     0.041092     0.747981  Biso 1.000000     H
    H   1.0     0.355027     0.021012     0.754921  Biso 1.000000     H
    H   1.0     0.277985     0.248746     0.024771  Biso 1.000000     H
    H   1.0     0.166167     0.274275    -0.005112  Biso 1.000000     H
    H   1.0     0.144353     0.273112     0.094030  Biso 1.000000     H
    H   1.0     0.192443     0.149188     0.164662  Biso 1.000000     H
    H   1.0     0.256956     0.060049     0.115151  Biso 1.000000     H
    H   1.0     0.326947     0.124300     0.099876  Biso 1.000000     H
    H   1.0     0.274316     0.146899     0.918810  Biso 1.000000     H
    H   1.0     0.373571     0.119659     0.962015  Biso 1.000000     H
    H   1.0     0.300308     0.058900     0.968020  Biso 1.000000     H
    H   1.0     0.247140     0.806559     0.059381  Biso 1.000000     H
    H   1.0     0.831561     0.837210     0.095301  Biso 1.000000     H
    H   1.0     0.005942     0.888486     0.267480  Biso 1.000000     H
    H   1.0     0.022911     0.979274     0.254918  Biso 1.000000     H
    H   1.0     0.359356     0.711656     0.189831  Biso 1.000000     H
    H   1.0     0.461074     0.776133     0.224091  Biso 1.000000     H
    H   1.0     0.367677     0.915510     0.263285  Biso 1.000000     H
    H   1.0     0.180770     0.983023     0.262615  Biso 1.000000     H
    H   1.0     0.547851     0.763262     0.975897  Biso 1.000000     H
    H   1.0     0.431229     0.737818     0.000000  Biso 1.000000     H
    H   1.0     0.503954     0.736375     0.909736  Biso 1.000000     H
    H   1.0     0.500068     0.859047     0.835338  Biso 1.000000     H
    H   1.0     0.430501     0.949106     0.883322  Biso 1.000000     H
    H   1.0     0.548778     0.884309     0.898121  Biso 1.000000     H
    H   1.0     0.337218     0.868299     0.081685  Biso 1.000000     H
    H   1.0     0.454379     0.893011     0.036976  Biso 1.000000     H
    H   1.0     0.328770     0.954362     0.029143  Biso 1.000000     H
    H   1.0     0.308265     0.699100     0.553470  Biso 1.000000     H
    H   1.0     0.921523     0.666979     0.588027  Biso 1.000000     H
    H   1.0     0.132980     0.682988     0.710386  Biso 1.000000     H
    H   1.0     0.155224     0.599137     0.768507  Biso 1.000000     H
    H   1.0     0.374447     0.782213     0.711552  Biso 1.000000     H
    H   1.0     0.530233     0.677850     0.731800  Biso 1.000000     H
    H   1.0     0.526003     0.542437     0.749590  Biso 1.000000     H
    H   1.0     0.369182     0.520649     0.740654  Biso 1.000000     H
    H   1.0     0.569816     0.748589     0.453836  Biso 1.000000     H
    H   1.0     0.427635     0.775007     0.487100  Biso 1.000000     H
    H   1.0     0.502280     0.762416     0.387439  Biso 1.000000     H
    H   1.0     0.623758     0.632259     0.331236  Biso 1.000000     H
    H   1.0     0.632127     0.549017     0.389323  Biso 1.000000     H
    H   1.0     0.690179     0.614359     0.397865  Biso 1.000000     H
    H   1.0     0.454263     0.658272     0.576238  Biso 1.000000     H
    H   1.0     0.596335     0.629179     0.533922  Biso 1.000000     H
    H   1.0     0.529346     0.564998     0.536996  Biso 1.000000     H
    H   1.0     0.561334     0.298427     0.444015  Biso 1.000000     H
    H   1.0     0.182573     0.329772     0.405564  Biso 1.000000     H
    H   1.0     0.530516     0.328210     0.269590  Biso 1.000000     H
    H   1.0     0.524971     0.420792     0.228512  Biso 1.000000     H
    H   1.0     0.857562     0.222074     0.297007  Biso 1.000000     H
    H   1.0     0.937416     0.322828     0.275361  Biso 1.000000     H
    H   1.0     0.826779     0.458570     0.249515  Biso 1.000000     H
    H   1.0     0.642026     0.484108     0.251158  Biso 1.000000     H
    H   1.0     0.780086     0.264097     0.521514  Biso 1.000000     H
    H   1.0     0.697176     0.236380     0.489416  Biso 1.000000     H
    H   1.0     0.674872     0.233992     0.588684  Biso 1.000000     H
    H   1.0     0.591351     0.356235     0.666200  Biso 1.000000     H
    H   1.0     0.566342     0.446648     0.619680  Biso 1.000000     H
    H   1.0     0.700415     0.383256     0.603340  Biso 1.000000     H
    H   1.0     0.665723     0.368681     0.420600  Biso 1.000000     H
    H   1.0     0.738514     0.395354     0.464396  Biso 1.000000     H
    H   1.0     0.602481     0.453650     0.475591  Biso 1.000000     H
    H   1.0     0.000000     0.444311     0.689851  Biso 1.000000     H
    H   1.0     0.418768     0.410946     0.662195  Biso 1.000000     H
    H   1.0     0.246802     0.232076     0.608840  Biso 1.000000     H
    H   1.0     0.227191     0.249982     0.519205  Biso 1.000000     H
    H   1.0     0.891096     0.314796     0.787401  Biso 1.000000     H
    H   1.0     0.790343     0.277667     0.724323  Biso 1.000000     H
    H   1.0     0.884716     0.235466     0.586016  Biso 1.000000     H
    H   1.0     0.071392     0.236521     0.517934  Biso 1.000000     H
    H   1.0     0.696229     0.538155     0.738657  Biso 1.000000     H
    H   1.0     0.813326     0.501902     0.763848  Biso 1.000000     H
    H   1.0     0.747632     0.602425     0.760280  Biso 1.000000     H
    H   1.0     0.751896     0.669857     0.634155  Biso 1.000000     H
    H   1.0     0.822805     0.617189     0.546871  Biso 1.000000     H
    H   1.0     0.702198     0.605836     0.611950  Biso 1.000000     H
    H   1.0     0.905639     0.422925     0.637867  Biso 1.000000     H
    H   1.0     0.789140     0.467544     0.612581  Biso 1.000000     H
    H   1.0     0.916355     0.471178     0.549419  Biso 1.000000     H
    H   1.0     0.147322     0.552059     0.302332  Biso 1.000000     H
    H   1.0     0.497496     0.589938     0.333671  Biso 1.000000     H
    H   1.0     0.159279     0.714423     0.319723  Biso 1.000000     H
    H   1.0     0.079254     0.767588     0.407187  Biso 1.000000     H
    H   1.0     0.916265     0.707963     0.223864  Biso 1.000000     H
    H   1.0     0.741222     0.729024     0.329347  Biso 1.000000     H
    H   1.0     0.729444     0.748540     0.463750  Biso 1.000000     H
    H   1.0     0.896100     0.741125     0.483327  Biso 1.000000     H
    H   1.0     0.980472     0.454036     0.256099  Biso 1.000000     H
    H   1.0     0.089806     0.487501     0.228147  Biso 1.000000     H
    H   1.0     0.114568     0.387570     0.238221  Biso 1.000000     H
    H   1.0     0.054637     0.328749     0.367435  Biso 1.000000     H
    H   1.0     0.991974     0.385261     0.451996  Biso 1.000000     H
    H   1.0     0.921472     0.395106     0.389204  Biso 1.000000     H
    H   1.0     0.978632     0.574408     0.346864  Biso 1.000000     H
    H   1.0     0.878827     0.531428     0.379046  Biso 1.000000     H
    H   1.0     0.948881     0.533673     0.439239  Biso 1.000000     H
    C   1.0     0.938530     0.122766     0.124863  Biso 1.000000     C
    C   1.0     0.892621     0.154499     0.068076  Biso 1.000000     C
    C   1.0     0.859126     0.000000     0.177498  Biso 1.000000     C
    C   1.0     0.759548     0.007885     0.176563  Biso 1.000000     C
    C   1.0     0.745189     0.948669     0.149120  Biso 1.000000     C
    C   1.0     0.039989     0.123270     0.117437  Biso 1.000000     C
    C   1.0     0.709844     0.231746     0.081145  Biso 1.000000     C
    C   1.0     0.598518     0.227711     0.119560  Biso 1.000000     C
    C   1.0     0.467736     0.205937     0.230115  Biso 1.000000     C
    C   1.0     0.392233     0.225327     0.194020  Biso 1.000000     C
    C   1.0     0.422467     0.247140     0.117702  Biso 1.000000     C
    C   1.0     0.527208     0.247469     0.079831  Biso 1.000000     C
    C   1.0     0.632817     0.957956     0.150954  Biso 1.000000     C
    C   1.0     0.555320     0.967212     0.234767  Biso 1.000000     C
    C   1.0     0.633403     0.889076     0.115642  Biso 1.000000     C
    C   1.0     0.592339     0.030169     0.105955  Biso 1.000000     C
    C   1.0     0.180928     0.886006     0.877582  Biso 1.000000     C
    C   1.0     0.112223     0.852616     0.934246  Biso 1.000000     C
    C   1.0     0.029379     0.003251     0.827878  Biso 1.000000     C
    C   1.0     0.934801     0.996413     0.828643  Biso 1.000000     C
    C   1.0     0.834777     0.055853     0.853993  Biso 1.000000     C
    C   1.0     0.275184     0.886592     0.884714  Biso 1.000000     C
    C   1.0     0.023727     0.772155     0.919245  Biso 1.000000     C
    C   1.0     0.948162     0.774617     0.879780  Biso 1.000000     C
    C   1.0     0.909494     0.793053     0.767683  Biso 1.000000     C
    C   1.0     0.817922     0.772868     0.802902  Biso 1.000000     C
    C   1.0     0.792033     0.752653     0.879694  Biso 1.000000     C
    C   1.0     0.857407     0.754223     0.918754  Biso 1.000000     C
    C   1.0     0.734767     0.047655     0.848219  Biso 1.000000     C
    C   1.0     0.748880     0.050288     0.762805  Biso 1.000000     C
    C   1.0     0.630632     0.112207     0.890407  Biso 1.000000     C
    C   1.0     0.724354     0.970681     0.881874  Biso 1.000000     C
    C   1.0     0.925782     0.129396     0.883528  Biso 1.000000     C
    C   1.0     0.027191     0.071589     0.852275  Biso 1.000000     C
    C   1.0     0.956309     0.181291     0.000723  Biso 1.000000     C
    C   1.0     0.056417     0.182079     0.995323  Biso 1.000000     C
    C   1.0     0.099773     0.154714     0.053399  Biso 1.000000     C
    C   1.0     0.831976     0.121394     0.883059  Biso 1.000000     C
    C   1.0     0.154639     0.128645     0.780590  Biso 1.000000     C
    C   1.0     0.255547     0.139828     0.776997  Biso 1.000000     C
    C   1.0     0.340292     0.222544     0.782529  Biso 1.000000     C
    C   1.0     0.438708     0.163133     0.770295  Biso 1.000000     C
    C   1.0     0.445105     0.089404     0.759795  Biso 1.000000     C
    C   1.0     0.352107     0.077816     0.763819  Biso 1.000000     C
    C   1.0     0.209248     0.158905     0.043657  Biso 1.000000     C
    C   1.0     0.198440     0.243842     0.039357  Biso 1.000000     C
    C   1.0     0.247633     0.120901     0.109909  Biso 1.000000     C
    C   1.0     0.294097     0.118635     0.968651  Biso 1.000000     C
    C   1.0     0.937921     0.878010     0.119857  Biso 1.000000     C
    C   1.0     0.950476     0.935905     0.151923  Biso 1.000000     C
    C   1.0     0.137000     0.826580     0.000000  Biso 1.000000     C
    C   1.0     0.231625     0.827336     0.006713  Biso 1.000000     C
    C   1.0     0.304184     0.855258     0.948238  Biso 1.000000     C
    C   1.0     0.836960     0.884384     0.119161  Biso 1.000000     C
    C   1.0     0.055569     0.921643     0.230673  Biso 1.000000     C
    C   1.0     0.170959     0.883132     0.226684  Biso 1.000000     C
    C   1.0     0.322569     0.771866     0.206076  Biso 1.000000     C
    C   1.0     0.378928     0.808066     0.225618  Biso 1.000000     C
    C   1.0     0.327553     0.884855     0.246744  Biso 1.000000     C
    C   1.0     0.222817     0.922979     0.246479  Biso 1.000000     C
    C   1.0     0.408367     0.851879     0.957124  Biso 1.000000     C
    C   1.0     0.476757     0.767263     0.963226  Biso 1.000000     C
    C   1.0     0.474999     0.888230     0.889301  Biso 1.000000     C
    C   1.0     0.380044     0.894429     0.030679  Biso 1.000000     C
    C   1.0     0.068297     0.627940     0.611372  Biso 1.000000     C
    C   1.0     0.136934     0.570600     0.644076  Biso 1.000000     C
    C   1.0     0.221595     0.673712     0.495353  Biso 1.000000     C
    C   1.0     0.315524     0.675484     0.501378  Biso 1.000000     C
    C   1.0     0.416388     0.647807     0.443120  Biso 1.000000     C
    C   1.0     0.973490     0.620591     0.612121  Biso 1.000000     C
    C   1.0     0.192655     0.627443     0.716277  Biso 1.000000     C
    C   1.0     0.289065     0.639344     0.720730  Biso 1.000000     C
    C   1.0     0.375828     0.723507     0.718259  Biso 1.000000     C
    C   1.0     0.463153     0.664600     0.729594  Biso 1.000000     C
    C   1.0     0.461344     0.590386     0.738203  Biso 1.000000     C
    C   1.0     0.373607     0.577796     0.733115  Biso 1.000000     C
    C   1.0     0.515941     0.654915     0.450810  Biso 1.000000     C
    C   1.0     0.503005     0.740377     0.444270  Biso 1.000000     C
    C   1.0     0.620912     0.609997     0.388435  Biso 1.000000     C
    C   1.0     0.524009     0.624988     0.529149  Biso 1.000000     C
    C   1.0     0.313417     0.369599     0.382834  Biso 1.000000     C
    C   1.0     0.356902     0.427598     0.351657  Biso 1.000000     C
    C   1.0     0.393182     0.320560     0.500461  Biso 1.000000     C
    C   1.0     0.493065     0.320953     0.496055  Biso 1.000000     C
    C   1.0     0.506653     0.351116     0.553925  Biso 1.000000     C
    C   1.0     0.212272     0.376508     0.382156  Biso 1.000000     C
    C   1.0     0.539511     0.382319     0.275779  Biso 1.000000     C
    C   1.0     0.651114     0.367208     0.275207  Biso 1.000000     C
    C   1.0     0.811780     0.280847     0.286738  Biso 1.000000     C
    C   1.0     0.856180     0.337764     0.274652  Biso 1.000000     C
    C   1.0     0.795126     0.412083     0.261266  Biso 1.000000     C
    C   1.0     0.691206     0.426811     0.262271  Biso 1.000000     C
    C   1.0     0.618897     0.349712     0.544425  Biso 1.000000     C
    C   1.0     0.697038     0.266050     0.535699  Biso 1.000000     C
    C   1.0     0.618234     0.386040     0.612641  Biso 1.000000     C
    C   1.0     0.658645     0.394477     0.471844  Biso 1.000000     C
    C   1.0     0.312987     0.384083     0.622968  Biso 1.000000     C
    C   1.0     0.301258     0.349211     0.566603  Biso 1.000000     C
    C   1.0     0.113081     0.503338     0.669985  Biso 1.000000     C
    C   1.0     0.018886     0.497189     0.669260  Biso 1.000000     C
    C   1.0     0.945477     0.556375     0.642636  Biso 1.000000     C
    C   1.0     0.414102     0.384430     0.616501  Biso 1.000000     C
    C   1.0     0.195717     0.271367     0.577837  Biso 1.000000     C
    C   1.0     0.080568     0.274855     0.616829  Biso 1.000000     C
    C   1.0     0.928562     0.296835     0.727753  Biso 1.000000     C
    C   1.0     0.872666     0.275777     0.692353  Biso 1.000000     C
    C   1.0     0.924577     0.253055     0.616082  Biso 1.000000     C
    C   1.0     0.029187     0.253489     0.577704  Biso 1.000000     C
    C   1.0     0.840029     0.548396     0.647521  Biso 1.000000     C
    C   1.0     0.770301     0.547790     0.732671  Biso 1.000000     C
    C   1.0     0.776227     0.614426     0.607820  Biso 1.000000     C
    C   1.0     0.864718     0.472945     0.609643  Biso 1.000000     C
    C   1.0     0.327864     0.612319     0.371731  Biso 1.000000     C
    C   1.0     0.226124     0.644793     0.428565  Biso 1.000000     C
    C   1.0     0.293592     0.494440     0.324504  Biso 1.000000     C
    C   1.0     0.193267     0.499741     0.324264  Biso 1.000000     C
    C   1.0     0.151296     0.440849     0.351661  Biso 1.000000     C
    C   1.0     0.420898     0.614641     0.379411  Biso 1.000000     C
    C   1.0     0.095539     0.716588     0.375628  Biso 1.000000     C
    C   1.0     0.994584     0.720139     0.364596  Biso 1.000000     C
    C   1.0     0.908940     0.715615     0.282149  Biso 1.000000     C
    C   1.0     0.810887     0.727285     0.341698  Biso 1.000000     C
    C   1.0     0.805064     0.736997     0.415371  Biso 1.000000     C
    C   1.0     0.898300     0.732692     0.426712  Biso 1.000000     C
    C   1.0     0.042627     0.448783     0.347172  Biso 1.000000     C
    C   1.0     0.058063     0.444046     0.262307  Biso 1.000000     C
    C   1.0     0.000000     0.385580     0.391523  Biso 1.000000     C
    C   1.0     0.957574     0.526706     0.380064  Biso 1.000000     C
    N   1.0     0.568396     0.207840     0.194427  Biso 1.000000     N
    N   1.0     0.974262     0.793364     0.804635  Biso 1.000000     N
    N   1.0     0.249898     0.212106     0.785140  Biso 1.000000     N
    N   1.0     0.220481     0.807928     0.207190  Biso 1.000000     N
    N   1.0     0.289288     0.712039     0.714589  Biso 1.000000     N
    N   1.0     0.711743     0.294285     0.286268  Biso 1.000000     N
    N   1.0     0.030710     0.295620     0.691579  Biso 1.000000     N
    N   1.0    -0.000541     0.712886     0.292447  Biso 1.000000     N
    O   1.0     0.790523     0.155885     0.079900  Biso 1.000000     O
    O   1.0     0.023726     0.849109     0.923253  Biso 1.000000     O
    O   1.0     0.122075     0.080623     0.845694  Biso 1.000000     O
    O   1.0     0.050097     0.925857     0.154293  Biso 1.000000     O
    O   1.0     0.225467     0.579287     0.650996  Biso 1.000000     O
    O   1.0     0.459808     0.418614     0.347486  Biso 1.000000     O
    O   1.0     0.201087     0.347132     0.577518  Biso 1.000000     O
    O   1.0     0.132250     0.649007     0.419085  Biso 1.000000     O
    F   1.0     0.399629     0.401048     0.814981  Biso 1.000000     F
    F   1.0     0.440300     0.290513     0.925748  Biso 1.000000     F
    F   1.0     0.628532     0.314712     0.904095  Biso 1.000000     F
    F   1.0     0.588490     0.425733     0.796269  Biso 1.000000     F
    F   1.0     0.432209     0.437834     0.940996  Biso 1.000000     F
    F   1.0     0.592738     0.280789     0.780934  Biso 1.000000     F
    F   1.0     0.624610     0.598644     0.185433  Biso 1.000000     F
    F   1.0     0.662615     0.706992     0.073941  Biso 1.000000     F
    F   1.0     0.851764     0.688683     0.095777  Biso 1.000000     F
    F   1.0     0.815307     0.580195     0.206980  Biso 1.000000     F
    F   1.0     0.818906     0.562044     0.061929  Biso 1.000000     F
    F   1.0     0.658613     0.722243     0.218928  Biso 1.000000     F
    F   1.0     0.781503     0.814592     0.598848  Biso 1.000000     F
    F   1.0     0.638137     0.923281     0.709993  Biso 1.000000     F
    F   1.0     0.465243     0.903925     0.691408  Biso 1.000000     F
    F   1.0     0.608753     0.793114     0.580227  Biso 1.000000     F
    F   1.0     0.621409     0.938378     0.564938  Biso 1.000000     F
    F   1.0     0.625413     0.780480     0.722357  Biso 1.000000     F
    F   1.0     0.197494     0.184971     0.401077  Biso 1.000000     F
    F   1.0     0.267090     0.074263     0.290200  Biso 1.000000     F
    F   1.0     0.053585     0.095896     0.314321  Biso 1.000000     F
    F   1.0     0.986191     0.204076     0.426081  Biso 1.000000     F
    F   1.0     0.128151     0.058586     0.435468  Biso 1.000000     F
    F   1.0     0.123495     0.219133     0.280788  Biso 1.000000     F
    S   1.0     0.869227     0.083521     0.211451  Biso 1.000000     S
    S   1.0     0.156266     0.926835     0.791867  Biso 1.000000     S
    S   1.0     0.913437     0.215953     0.920792  Biso 1.000000     S
    S   1.0     0.047704     0.791791     0.080486  Biso 1.000000     S
    S   1.0     0.095722     0.712653     0.571161  Biso 1.000000     S
    S   1.0     0.388019     0.284072     0.419833  Biso 1.000000     S
    S   1.0     0.202402     0.427315     0.707586  Biso 1.000000     S
    S   1.0     0.342032     0.571478     0.286593  Biso 1.000000     S
   Ag   1.0     0.687193     0.192617     0.253382  Biso 1.000000    Ag
   Ag   1.0     0.132998     0.815063     0.748500  Biso 1.000000    Ag
   Ag   1.0     0.132638     0.317846     0.748648  Biso 1.000000    Ag
   Ag   1.0     0.118128     0.748804     0.189975  Biso 1.000000    Ag
   Sb   1.0     0.511897     0.359737     0.861509  Biso 1.000000    Sb
   Sb   1.0     0.739449     0.641934     0.139555  Biso 1.000000    Sb
   Sb   1.0     0.623437     0.860083     0.643210  Biso 1.000000    Sb
   Sb   1.0     0.126333     0.138554     0.358918  Biso 1.000000    Sb
