#======================================================================

# CRYSTAL DATA

#----------------------------------------------------------------------

data_VESTA_phase_1


_pd_phase_name                         MOF
_cell_length_a                         12.66700
_cell_length_b                         12.66700
_cell_length_c                         25.44000
_cell_angle_alpha                      90.00000
_cell_angle_beta                       90.00000
_cell_angle_gamma                      90.00000
_symmetry_space_group_name_H-M         "P 1"
_symmetry_Int_Tables_number            1

loop_
_symmetry_equiv_pos_as_xyz
   "x, y, z"

loop_
   _atom_site_label
   _atom_site_occupancy
   _atom_site_fract_x
   _atom_site_fract_y
   _atom_site_fract_z
   _atom_site_adp_type
   _atom_site_B_iso_or_equiv
   _atom_site_type_symbol
    H   1.0     0.880743     0.960121     0.352643  Biso 1.000000     H
    H   1.0     0.741937     0.986923     0.352310  Biso 1.000000     H
    H   1.0     0.059459     0.934225     0.232561  Biso 1.000000     H
    H   1.0     0.317351     0.938346     0.342427  Biso 1.000000     H
    H   1.0     0.729444     0.063121     0.536433  Biso 1.000000     H
    H   1.0     0.634174     0.555385     0.351907  Biso 1.000000     H
    H   1.0     0.772968     0.528544     0.351401  Biso 1.000000     H
    H   1.0     0.445395     0.581405     0.232621  Biso 1.000000     H
    H   1.0     0.187760     0.576708     0.342634  Biso 1.000000     H
    H   1.0     0.785788     0.443653     0.535750  Biso 1.000000     H
    H   1.0     0.553599     0.882431     0.351868  Biso 1.000000     H
    H   1.0     0.527453     0.743357     0.351469  Biso 1.000000     H
    H   1.0     0.579187     0.059715     0.232294  Biso 1.000000     H
    H   1.0     0.574828     0.315877     0.343150  Biso 1.000000     H
    H   1.0     0.449068     0.729916     0.536606  Biso 1.000000     H
    H   1.0     0.961644     0.633059     0.351881  Biso 1.000000     H
    H   1.0     0.986387     0.772413     0.351452  Biso 1.000000     H
    H   1.0     0.933674     0.444841     0.232539  Biso 1.000000     H
    H   1.0     0.938648     0.187411     0.342675  Biso 1.000000     H
    H   1.0     0.057182     0.786423     0.536578  Biso 1.000000     H
    H   1.0     0.632294     0.960823     0.148380  Biso 1.000000     H
    H   1.0     0.771266     0.987393     0.148882  Biso 1.000000     H
    H   1.0     0.445776     0.935211     0.267903  Biso 1.000000     H
    H   1.0     0.187877     0.937343     0.158024  Biso 1.000000     H
    H   1.0     0.784847     0.060739     0.970192  Biso 1.000000     H
    H   1.0     0.879843     0.554643     0.148523  Biso 1.000000     H
    H   1.0     0.740874     0.528381     0.148986  Biso 1.000000     H
    H   1.0     0.059219     0.579860     0.268216  Biso 1.000000     H
    H   1.0     0.316867     0.578346     0.158181  Biso 1.000000     H
    H   1.0     0.730555     0.445656     0.969954  Biso 1.000000     H
    H   1.0     0.959111     0.882465     0.148583  Biso 1.000000     H
    H   1.0     0.985033     0.743392     0.148937  Biso 1.000000     H
    H   1.0     0.933469     0.058681     0.268331  Biso 1.000000     H
    H   1.0     0.934989     0.316125     0.158165  Biso 1.000000     H
    H   1.0     0.060711     0.730851     0.969834  Biso 1.000000     H
    H   1.0     0.553593     0.633301     0.148749  Biso 1.000000     H
    H   1.0     0.527804     0.772439     0.149155  Biso 1.000000     H
    H   1.0     0.577973     0.445454     0.269132  Biso 1.000000     H
    H   1.0     0.575952     0.189285     0.158258  Biso 1.000000     H
    H   1.0     0.449774     0.786424     0.969952  Biso 1.000000     H
    H   1.0     0.130478     0.050993     0.650902  Biso 1.000000     H
    H   1.0     0.269259     0.023932     0.651287  Biso 1.000000     H
    H   1.0     0.951607     0.077206     0.771017  Biso 1.000000     H
    H   1.0     0.693810     0.073342     0.661095  Biso 1.000000     H
    H   1.0     0.281771     0.947697     0.467149  Biso 1.000000     H
    H   1.0     0.377182     0.456073     0.651561  Biso 1.000000     H
    H   1.0     0.238356     0.482977     0.652059  Biso 1.000000     H
    H   1.0     0.565820     0.430694     0.770865  Biso 1.000000     H
    H   1.0     0.823436     0.434367     0.660835  Biso 1.000000     H
    H   1.0     0.225429     0.566894     0.467600  Biso 1.000000     H
    H   1.0     0.457292     0.128500     0.651685  Biso 1.000000     H
    H   1.0     0.483615     0.267527     0.651999  Biso 1.000000     H
    H   1.0     0.432268     0.952429     0.771195  Biso 1.000000     H
    H   1.0     0.435494     0.694973     0.661059  Biso 1.000000     H
    H   1.0     0.562735     0.280320     0.466940  Biso 1.000000     H
    H   1.0     0.049478     0.378488     0.651618  Biso 1.000000     H
    H   1.0     0.024712     0.239135     0.652050  Biso 1.000000     H
    H   1.0     0.075806     0.566449     0.770998  Biso 1.000000     H
    H   1.0     0.073070     0.823983     0.660891  Biso 1.000000     H
    H   1.0     0.954281     0.225074     0.466883  Biso 1.000000     H
    H   1.0     0.376881     0.051961     0.855137  Biso 1.000000     H
    H   1.0     0.238179     0.024837     0.854520  Biso 1.000000     H
    H   1.0     0.565352     0.076483     0.735584  Biso 1.000000     H
    H   1.0     0.823160     0.074075     0.845515  Biso 1.000000     H
    H   1.0     0.224902     0.948320     0.032807  Biso 1.000000     H
    H   1.0     0.131319     0.456827     0.855019  Biso 1.000000     H
    H   1.0     0.270249     0.483545     0.854610  Biso 1.000000     H
    H   1.0     0.951967     0.431297     0.735248  Biso 1.000000     H
    H   1.0     0.694349     0.433877     0.845292  Biso 1.000000     H
    H   1.0     0.280531     0.566676     0.033483  Biso 1.000000     H
    H   1.0     0.050758     0.128950     0.855164  Biso 1.000000     H
    H   1.0     0.025627     0.268148     0.854793  Biso 1.000000     H
    H   1.0     0.077145     0.952622     0.735276  Biso 1.000000     H
    H   1.0     0.073159     0.695104     0.845387  Biso 1.000000     H
    H   1.0     0.949331     0.280889     0.033875  Biso 1.000000     H
    H   1.0     0.458162     0.378477     0.854918  Biso 1.000000     H
    H   1.0     0.483538     0.239261     0.854473  Biso 1.000000     H
    H   1.0     0.432347     0.566238     0.735434  Biso 1.000000     H
    H   1.0     0.435526     0.823679     0.845583  Biso 1.000000     H
    H   1.0     0.560771     0.224940     0.033721  Biso 1.000000     H
    C   1.0     0.103077     0.935595     0.336519  Biso 1.000000     C
    C   1.0     0.180422     0.936227     0.292081  Biso 1.000000     C
    C   1.0     0.144108     0.934976     0.239976  Biso 1.000000     C
    C   1.0     0.289533     0.937091     0.301950  Biso 1.000000     C
    C   1.0     0.817763     0.000000     0.422942  Biso 1.000000     C
    C   1.0     0.774368     0.040389     0.501924  Biso 1.000000     C
    C   1.0     0.402240     0.579644     0.336637  Biso 1.000000     C
    C   1.0     0.324649     0.579112     0.292255  Biso 1.000000     C
    C   1.0     0.360772     0.580537     0.240109  Biso 1.000000     C
    C   1.0     0.215538     0.578096     0.302149  Biso 1.000000     C
    C   1.0     0.697762     0.509965     0.422239  Biso 1.000000     C
    C   1.0     0.740594     0.465942     0.501256  Biso 1.000000     C
    C   1.0     0.577993     0.101848     0.336551  Biso 1.000000     C
    C   1.0     0.577133     0.179712     0.292306  Biso 1.000000     C
    C   1.0     0.578349     0.144248     0.240050  Biso 1.000000     C
    C   1.0     0.576157     0.288690     0.302565  Biso 1.000000     C
    C   1.0     0.509686     0.818595     0.422404  Biso 1.000000     C
    C   1.0     0.469652     0.775340     0.501925  Biso 1.000000     C
    C   1.0     0.936881     0.401815     0.336559  Biso 1.000000     C
    C   1.0     0.936298     0.324177     0.292218  Biso 1.000000     C
    C   1.0     0.934238     0.360226     0.240068  Biso 1.000000     C
    C   1.0     0.936771     0.215080     0.302173  Biso 1.000000     C
    C   1.0     0.000000     0.697300     0.422352  Biso 1.000000     C
    C   1.0     0.037025     0.740875     0.501875  Biso 1.000000     C
    C   1.0     0.402227     0.935589     0.163980  Biso 1.000000     C
    C   1.0     0.324803     0.936167     0.208381  Biso 1.000000     C
    C   1.0     0.361123     0.935537     0.260487  Biso 1.000000     C
    C   1.0     0.215692     0.936524     0.198506  Biso 1.000000     C
    C   1.0     0.695906     0.000000     0.078102  Biso 1.000000     C
    C   1.0     0.737479     0.038572    -0.001021  Biso 1.000000     C
    C   1.0     0.102420     0.579725     0.164167  Biso 1.000000     C
    C   1.0     0.179963     0.579169     0.208566  Biso 1.000000     C
    C   1.0     0.143839     0.579680     0.260713  Biso 1.000000     C
    C   1.0     0.289082     0.579010     0.198671  Biso 1.000000     C
    C   1.0     0.816353     0.509392     0.078132  Biso 1.000000     C
    C   1.0     0.773645     0.467036    -0.001176  Biso 1.000000     C
    C   1.0     0.932903     0.101836     0.164226  Biso 1.000000     C
    C   1.0     0.934153     0.179349     0.208628  Biso 1.000000     C
    C   1.0     0.934126     0.143292     0.260787  Biso 1.000000     C
    C   1.0     0.934749     0.288443     0.198672  Biso 1.000000     C
    C   1.0     0.000000     0.818836     0.078111  Biso 1.000000     C
    C   1.0     0.037512     0.775936    -0.001251  Biso 1.000000     C
    C   1.0     0.578028     0.403942     0.165125  Biso 1.000000     C
    C   1.0     0.577103     0.325475     0.209123  Biso 1.000000     C
    C   1.0     0.577669     0.360923     0.261383  Biso 1.000000     C
    C   1.0     0.576744     0.216508     0.198844  Biso 1.000000     C
    C   1.0     0.509315     0.697358     0.078263  Biso 1.000000     C
    C   1.0     0.468439     0.740764    -0.001145  Biso 1.000000     C
    C   1.0     0.908131     0.075957     0.667017  Biso 1.000000     C
    C   1.0     0.830729     0.075342     0.711451  Biso 1.000000     C
    C   1.0     0.866969     0.076504     0.763572  Biso 1.000000     C
    C   1.0     0.721617     0.074531     0.701575  Biso 1.000000     C
    C   1.0     0.193471     0.004339     0.580631  Biso 1.000000     C
    C   1.0     0.236871     0.970543     0.501648  Biso 1.000000     C
    C   1.0     0.608926     0.431849     0.666833  Biso 1.000000     C
    C   1.0     0.686540     0.432476     0.711214  Biso 1.000000     C
    C   1.0     0.650441     0.431402     0.763367  Biso 1.000000     C
    C   1.0     0.795652     0.433255     0.701321  Biso 1.000000     C
    C   1.0     0.313552     0.501273     0.581194  Biso 1.000000     C
    C   1.0     0.270647     0.544773     0.502114  Biso 1.000000     C
    C   1.0     0.433109     0.909269     0.667142  Biso 1.000000     C
    C   1.0     0.433767     0.831726     0.711526  Biso 1.000000     C
    C   1.0     0.432831     0.867808     0.763677  Biso 1.000000     C
    C   1.0     0.434403     0.722635     0.701567  Biso 1.000000     C
    C   1.0     0.501431     0.192085     0.581125  Biso 1.000000     C
    C   1.0     0.541927     0.235064     0.501640  Biso 1.000000     C
    C   1.0     0.074264     0.609597     0.666950  Biso 1.000000     C
    C   1.0     0.074321     0.687162     0.711326  Biso 1.000000     C
    C   1.0     0.075440     0.651067     0.763475  Biso 1.000000     C
    C   1.0     0.074181     0.796266     0.701392  Biso 1.000000     C
    C   1.0     0.006061     0.314244     0.581139  Biso 1.000000     C
    C   1.0     0.974367     0.270634     0.501593  Biso 1.000000     C
    C   1.0     0.608727     0.075982     0.839542  Biso 1.000000     C
    C   1.0     0.686231     0.075357     0.795153  Biso 1.000000     C
    C   1.0     0.649993     0.076085     0.743029  Biso 1.000000     C
    C   1.0     0.795346     0.074944     0.805032  Biso 1.000000     C
    C   1.0     0.313301     0.005843     0.925331  Biso 1.000000     C
    C   1.0     0.272102     0.971541     0.000000  Biso 1.000000     C
    C   1.0     0.908797     0.431893     0.839316  Biso 1.000000     C
    C   1.0     0.831253     0.432546     0.794909  Biso 1.000000     C
    C   1.0     0.867353     0.431705     0.742759  Biso 1.000000     C
    C   1.0     0.722133     0.432970     0.804804  Biso 1.000000     C
    C   1.0     0.194785     0.502180     0.925408  Biso 1.000000     C
    C   1.0     0.237464     0.545056     0.000000  Biso 1.000000     C
    C   1.0     0.075769     0.909479     0.839340  Biso 1.000000     C
    C   1.0     0.075135     0.831916     0.794955  Biso 1.000000     C
    C   1.0     0.076190     0.868008     0.742802  Biso 1.000000     C
    C   1.0     0.074209     0.722820     0.804887  Biso 1.000000     C
    C   1.0     0.006113     0.192760     0.925594  Biso 1.000000     C
    C   1.0     0.972345     0.235739     0.000000  Biso 1.000000     C
    C   1.0     0.433218     0.609383     0.839470  Biso 1.000000     C
    C   1.0     0.433793     0.686939     0.795108  Biso 1.000000     C
    C   1.0     0.432859     0.650857     0.742959  Biso 1.000000     C
    C   1.0     0.434410     0.796032     0.805071  Biso 1.000000     C
    C   1.0     0.501984     0.314342     0.925390  Biso 1.000000     C
    C   1.0     0.542365     0.270735     0.000000  Biso 1.000000     C
    N   1.0     0.731684     0.021675     0.453888  Biso 1.000000     N
    N   1.0     0.877955     0.027607     0.502449  Biso 1.000000     N
    N   1.0     0.908312     0.000000     0.451261  Biso 1.000000     N
    N   1.0     0.812201     0.979079     0.372092  Biso 1.000000     N
    N   1.0     0.782844     0.483655     0.453032  Biso 1.000000     N
    N   1.0     0.637041     0.479062     0.502020  Biso 1.000000     N
    N   1.0     0.607453     0.506381     0.450816  Biso 1.000000     N
    N   1.0     0.702828     0.536538     0.371244  Biso 1.000000     N
    N   1.0     0.485337     0.733334     0.453466  Biso 1.000000     N
    N   1.0     0.482257     0.878950     0.502613  Biso 1.000000     N
    N   1.0     0.507000     0.908736     0.451123  Biso 1.000000     N
    N   1.0     0.532897     0.814080     0.371020  Biso 1.000000     N
    N   1.0     0.020757     0.782722     0.453448  Biso 1.000000     N
    N   1.0     0.025569     0.637168     0.502496  Biso 1.000000     N
    N   1.0     0.000000     0.607160     0.451017  Biso 1.000000     N
    N   1.0     0.981523     0.701656     0.371022  Biso 1.000000     N
    N   1.0     0.779610     0.020843     0.047206  Biso 1.000000     N
    N   1.0     0.636008     0.026183     0.000000  Biso 1.000000     N
    N   1.0     0.605640     0.000000     0.049536  Biso 1.000000     N
    N   1.0     0.700852     0.980580     0.129143  Biso 1.000000     N
    N   1.0     0.731396     0.483946     0.047121  Biso 1.000000     N
    N   1.0     0.879304     0.480093     0.000000  Biso 1.000000     N
    N   1.0     0.906650     0.506097     0.049565  Biso 1.000000     N
    N   1.0     0.811402     0.534493     0.129288  Biso 1.000000     N
    N   1.0     0.020689     0.733691     0.047066  Biso 1.000000     N
    N   1.0     0.027325     0.879786     0.000000  Biso 1.000000     N
    N   1.0     0.000000     0.909156     0.049558  Biso 1.000000     N
    N   1.0     0.978966     0.813988     0.129316  Biso 1.000000     N
    N   1.0     0.484963     0.782675     0.047245  Biso 1.000000     N
    N   1.0     0.482603     0.637320     0.000000  Biso 1.000000     N
    N   1.0     0.505684     0.607225     0.049590  Biso 1.000000     N
    N   1.0     0.533749     0.701855     0.129503  Biso 1.000000     N
    N   1.0     0.279531     0.988937     0.549722  Biso 1.000000     N
    N   1.0     0.133343     0.983776     0.501068  Biso 1.000000     N
    N   1.0     0.102977     0.000444     0.552250  Biso 1.000000     N
    N   1.0     0.198950     0.031514     0.631522  Biso 1.000000     N
    N   1.0     0.228455     0.527468     0.550390  Biso 1.000000     N
    N   1.0     0.374180     0.531511     0.501328  Biso 1.000000     N
    N   1.0     0.403813     0.504508     0.552567  Biso 1.000000     N
    N   1.0     0.308569     0.475237     0.632258  Biso 1.000000     N
    N   1.0     0.526088     0.277268     0.550056  Biso 1.000000     N
    N   1.0     0.529159     0.131464     0.500998  Biso 1.000000     N
    N   1.0     0.504092     0.101833     0.552476  Biso 1.000000     N
    N   1.0     0.477927     0.196811     0.632479  Biso 1.000000     N
    N   1.0     0.990508     0.228806     0.550036  Biso 1.000000     N
    N   1.0     0.985825     0.374342     0.500971  Biso 1.000000     N
    N   1.0     0.002313     0.404373     0.552464  Biso 1.000000     N
    N   1.0     0.029448     0.309915     0.632494  Biso 1.000000     N
    N   1.0     0.229671     0.990267     0.956045  Biso 1.000000     N
    N   1.0     0.373542     0.984487    -0.000826  Biso 1.000000     N
    N   1.0     0.403675     0.001751     0.953821  Biso 1.000000     N
    N   1.0     0.308108     0.033622     0.874494  Biso 1.000000     N
    N   1.0     0.279734     0.527891     0.956373  Biso 1.000000     N
    N   1.0     0.131814     0.531894    -0.000453  Biso 1.000000     N
    N   1.0     0.104490     0.505536     0.953970  Biso 1.000000     N
    N   1.0     0.199787     0.476694     0.874300  Biso 1.000000     N
    N   1.0     0.989667     0.277986     0.956668  Biso 1.000000     N
    N   1.0     0.981805     0.131807    -0.000232  Biso 1.000000     N
    N   1.0     0.001792     0.102424     0.954100  Biso 1.000000     N
    N   1.0     0.030963     0.197477     0.874399  Biso 1.000000     N
    N   1.0     0.525971     0.228926     0.956399  Biso 1.000000     N
    N   1.0     0.528420     0.374218    -0.000211  Biso 1.000000     N
    N   1.0     0.505617     0.404458     0.954084  Biso 1.000000     N
    N   1.0     0.478004     0.309907     0.874098  Biso 1.000000     N
    O   1.0     0.140533     0.957748     0.382574  Biso 1.000000     O
    O   1.0     0.007104     0.912879     0.328475  Biso 1.000000     O
    O   1.0     0.365055     0.557418     0.382760  Biso 1.000000     O
    O   1.0     0.498168     0.602374     0.328511  Biso 1.000000     O
    O   1.0     0.555949     0.138920     0.382700  Biso 1.000000     O
    O   1.0     0.600849     0.005982     0.328330  Biso 1.000000     O
    O   1.0     0.959821     0.364666     0.382591  Biso 1.000000     O
    O   1.0     0.914281     0.497801     0.328495  Biso 1.000000     O
    O   1.0     0.364865     0.957738     0.117899  Biso 1.000000     O
    O   1.0     0.498169     0.912858     0.172092  Biso 1.000000     O
    O   1.0     0.139658     0.557470     0.118069  Biso 1.000000     O
    O   1.0     0.006485     0.602527     0.172246  Biso 1.000000     O
    O   1.0     0.954918     0.139108     0.118117  Biso 1.000000     O
    O   1.0     0.909904     0.005956     0.172323  Biso 1.000000     O
    O   1.0     0.555763     0.367724     0.118808  Biso 1.000000     O
    O   1.0     0.601268     0.499441     0.173931  Biso 1.000000     O
    O   1.0     0.870719     0.053833     0.620949  Biso 1.000000     O
    O   1.0     0.000000     0.098671     0.675070  Biso 1.000000     O
    O   1.0     0.646108     0.453978     0.620693  Biso 1.000000     O
    O   1.0     0.513022     0.409096     0.674987  Biso 1.000000     O
    O   1.0     0.455300     0.871977     0.621063  Biso 1.000000     O
    O   1.0     0.410248     0.000000     0.675232  Biso 1.000000     O
    O   1.0     0.051558     0.646807     0.620899  Biso 1.000000     O
    O   1.0     0.096959     0.513634     0.675011  Biso 1.000000     O
    O   1.0     0.645973     0.053813     0.885653  Biso 1.000000     O
    O   1.0     0.512806     0.098750     0.831417  Biso 1.000000     O
    O   1.0     0.871595     0.454165     0.885416  Biso 1.000000     O
    O   1.0     0.000000     0.409026     0.831230  Biso 1.000000     O
    O   1.0     0.052351     0.872511     0.885345  Biso 1.000000     O
    O   1.0     0.099629     0.000000     0.831286  Biso 1.000000     O
    O   1.0     0.455502     0.646606     0.885563  Biso 1.000000     O
    O   1.0     0.410336     0.513470     0.831360  Biso 1.000000     O
   Zn   1.0     0.038599     0.939952     0.440102  Biso 1.000000    Zn
   Zn   1.0     0.467732     0.575506     0.440019  Biso 1.000000    Zn
   Zn   1.0     0.574125     0.036834     0.440131  Biso 1.000000    Zn
   Zn   1.0     0.941282     0.467398     0.439778  Biso 1.000000    Zn
   Zn   1.0     0.467040     0.939970     0.060487  Biso 1.000000    Zn
   Zn   1.0     0.037525     0.575755     0.060617  Biso 1.000000    Zn
   Zn   1.0     0.936880     0.037007     0.060635  Biso 1.000000    Zn
   Zn   1.0     0.573945     0.467599     0.060685  Biso 1.000000    Zn
   Zn   1.0     0.972703     0.071594     0.563406  Biso 1.000000    Zn
   Zn   1.0     0.543550     0.435540     0.563414  Biso 1.000000    Zn
   Zn   1.0     0.437153     0.973383     0.563410  Biso 1.000000    Zn
   Zn   1.0     0.070065     0.544131     0.563691  Biso 1.000000    Zn
   Zn   1.0     0.543175     0.071548     0.942869  Biso 1.000000    Zn
   Zn   1.0     0.973628     0.435879     0.942928  Biso 1.000000    Zn
   Zn   1.0     0.071261     0.974375     0.942879  Biso 1.000000    Zn
   Zn   1.0     0.437314     0.544147     0.942865  Biso 1.000000    Zn
