#======================================================================

# CRYSTAL DATA

#----------------------------------------------------------------------

data_VESTA_phase_1


_pd_phase_name                         MOF
_cell_length_a                         20.27000
_cell_length_b                         12.92000
_cell_length_c                         21.16200
_cell_angle_alpha                      90.00100
_cell_angle_beta                       89.93700
_cell_angle_gamma                      106.16000
_symmetry_space_group_name_H-M         "P 1"
_symmetry_Int_Tables_number            1

loop_
_symmetry_equiv_pos_as_xyz
   "x, y, z"

loop_
   _atom_site_label
   _atom_site_occupancy
   _atom_site_fract_x
   _atom_site_fract_y
   _atom_site_fract_z
   _atom_site_adp_type
   _atom_site_B_iso_or_equiv
   _atom_site_type_symbol
    H   1.0     0.064847     0.559058     0.342622  Biso 1.000000     H
    H   1.0     0.564845     0.559052     0.342630  Biso 1.000000     H
    H   1.0     0.127435     0.632442     0.244509  Biso 1.000000     H
    H   1.0     0.627417     0.632394     0.244502  Biso 1.000000     H
    H   1.0     0.306292     0.552056     0.314557  Biso 1.000000     H
    H   1.0     0.806275     0.551989     0.314534  Biso 1.000000     H
    H   1.0     0.246093     0.491306     0.415482  Biso 1.000000     H
    H   1.0     0.746091     0.491277     0.415471  Biso 1.000000     H
    H   1.0     0.038514     0.504943     0.801604  Biso 1.000000     H
    H   1.0     0.538509     0.504921     0.801604  Biso 1.000000     H
    H   1.0     0.064000     0.670412     0.628231  Biso 1.000000     H
    H   1.0     0.564005     0.670395     0.628233  Biso 1.000000     H
    H   1.0     0.374778     0.105666     0.690846  Biso 1.000000     H
    H   1.0     0.874782     0.105672     0.690853  Biso 1.000000     H
    H   1.0     0.395827     0.261216     0.514978  Biso 1.000000     H
    H   1.0     0.895817     0.261209     0.514981  Biso 1.000000     H
    H   1.0     0.168701     0.120284     0.673246  Biso 1.000000     H
    H   1.0     0.668695     0.120258     0.673249  Biso 1.000000     H
    H   1.0     0.188687     0.288452     0.501645  Biso 1.000000     H
    H   1.0     0.688691     0.288432     0.501650  Biso 1.000000     H
    H   1.0     0.293760     0.737660     0.231634  Biso 1.000000     H
    H   1.0     0.793712     0.737592     0.231583  Biso 1.000000     H
    H   1.0     0.226913     0.669085     0.180205  Biso 1.000000     H
    H   1.0     0.726873     0.668942     0.180169  Biso 1.000000     H
    H   1.0     0.435772    -0.063188     0.842757  Biso 1.000000     H
    H   1.0     0.935798    -0.063170     0.842735  Biso 1.000000     H
    H   1.0     0.373074     0.863196     0.744864  Biso 1.000000     H
    H   1.0     0.873085     0.863210     0.744851  Biso 1.000000     H
    H   1.0     0.194326     0.943787     0.815369  Biso 1.000000     H
    H   1.0     0.694336     0.943747     0.815400  Biso 1.000000     H
    H   1.0     0.254621     0.000000     0.916077  Biso 1.000000     H
    H   1.0     0.754648     0.000000     0.916098  Biso 1.000000     H
    H   1.0     0.461736    -0.008137     0.301924  Biso 1.000000     H
    H   1.0     0.961730    -0.008181     0.301930  Biso 1.000000     H
    H   1.0     0.436747     0.826241     0.128672  Biso 1.000000     H
    H   1.0     0.936749     0.826214     0.128673  Biso 1.000000     H
    H   1.0     0.125684     0.390171     0.191125  Biso 1.000000     H
    H   1.0     0.625692     0.390144     0.191108  Biso 1.000000     H
    H   1.0     0.105461     0.234666     0.015305  Biso 1.000000     H
    H   1.0     0.605435     0.234617     0.015294  Biso 1.000000     H
    H   1.0     0.332088     0.376232     0.173066  Biso 1.000000     H
    H   1.0     0.832076     0.376160     0.173059  Biso 1.000000     H
    H   1.0     0.312761     0.208199     0.001504  Biso 1.000000     H
    H   1.0     0.812787     0.208149     0.001492  Biso 1.000000     H
    H   1.0     0.206060     0.758472     0.732696  Biso 1.000000     H
    H   1.0     0.706059     0.758460     0.732714  Biso 1.000000     H
    H   1.0     0.273502     0.825207     0.681229  Biso 1.000000     H
    H   1.0     0.773499     0.825179     0.681241  Biso 1.000000     H
    H   1.0     0.435433     0.437562     0.657400  Biso 1.000000     H
    H   1.0     0.935439     0.437576     0.657407  Biso 1.000000     H
    H   1.0     0.372888     0.364488     0.755581  Biso 1.000000     H
    H   1.0     0.872892     0.364498     0.755586  Biso 1.000000     H
    H   1.0     0.193832     0.443910     0.685242  Biso 1.000000     H
    H   1.0     0.693829     0.443885     0.685235  Biso 1.000000     H
    H   1.0     0.253994     0.504340     0.584266  Biso 1.000000     H
    H   1.0     0.753995     0.504321     0.584261  Biso 1.000000     H
    H   1.0     0.462571     0.492154     0.198208  Biso 1.000000     H
    H   1.0     0.962550     0.492108     0.198205  Biso 1.000000     H
    H   1.0     0.436794     0.326148     0.371389  Biso 1.000000     H
    H   1.0     0.936801     0.326128     0.371393  Biso 1.000000     H
    H   1.0     0.125214     0.890510     0.308703  Biso 1.000000     H
    H   1.0     0.625224     0.890524     0.308714  Biso 1.000000     H
    H   1.0     0.104606     0.735262     0.484658  Biso 1.000000     H
    H   1.0     0.604602     0.735248     0.484661  Biso 1.000000     H
    H   1.0     0.331355     0.875287     0.326629  Biso 1.000000     H
    H   1.0     0.831332     0.875239     0.326619  Biso 1.000000     H
    H   1.0     0.311405     0.707410     0.498315  Biso 1.000000     H
    H   1.0     0.811410     0.707398     0.498316  Biso 1.000000     H
    H   1.0     0.206703     0.258770     0.768526  Biso 1.000000     H
    H   1.0     0.706701     0.258759     0.768519  Biso 1.000000     H
    H   1.0     0.273412     0.327939     0.819911  Biso 1.000000     H
    H   1.0     0.773410     0.327921     0.819907  Biso 1.000000     H
    H   1.0     0.064705     0.000000     0.157566  Biso 1.000000     H
    H   1.0     0.564712     0.000000     0.157555  Biso 1.000000     H
    H   1.0     0.127214     0.130765     0.255644  Biso 1.000000     H
    H   1.0     0.627225     0.130775     0.255630  Biso 1.000000     H
    H   1.0     0.306693     0.053223     0.184433  Biso 1.000000     H
    H   1.0     0.806692     0.053179     0.184434  Biso 1.000000     H
    H   1.0     0.246544    -0.007113     0.083572  Biso 1.000000     H
    H   1.0     0.746543    -0.007168     0.083575  Biso 1.000000     H
    H   1.0     0.037783     0.000000     0.697936  Biso 1.000000     H
    H   1.0     0.537781     0.000000     0.697942  Biso 1.000000     H
    H   1.0     0.063642     0.170048     0.871154  Biso 1.000000     H
    H   1.0     0.563631     0.170027     0.871161  Biso 1.000000     H
    H   1.0     0.375009     0.606037     0.808413  Biso 1.000000     H
    H   1.0     0.875012     0.606038     0.808420  Biso 1.000000     H
    H   1.0     0.395286     0.760638     0.984506  Biso 1.000000     H
    H   1.0     0.895282     0.760641     0.984512  Biso 1.000000     H
    H   1.0     0.168626     0.621130     0.826827  Biso 1.000000     H
    H   1.0     0.668623     0.621098     0.826830  Biso 1.000000     H
    H   1.0     0.187815     0.788579     0.998567  Biso 1.000000     H
    H   1.0     0.687809     0.788540     0.998572  Biso 1.000000     H
    H   1.0     0.293780     0.237724     0.267614  Biso 1.000000     H
    H   1.0     0.793795     0.237704     0.267599  Biso 1.000000     H
    H   1.0     0.226904     0.169397     0.319184  Biso 1.000000     H
    H   1.0     0.726913     0.169406     0.319171  Biso 1.000000     H
    C   1.0     0.151378     0.521835     0.385861  Biso 1.000000     C
    C   1.0     0.651376     0.521816     0.385859  Biso 1.000000     C
    C   1.0     0.117857     0.558372     0.336426  Biso 1.000000     C
    C   1.0     0.617852     0.558351     0.336427  Biso 1.000000     C
    C   1.0     0.153271     0.599049     0.281256  Biso 1.000000     C
    C   1.0     0.653256     0.599005     0.281249  Biso 1.000000     C
    C   1.0     0.222190     0.600643     0.272997  Biso 1.000000     C
    C   1.0     0.722171     0.600579     0.272979  Biso 1.000000     C
    C   1.0     0.253619     0.555648     0.320728  Biso 1.000000     C
    C   1.0     0.753605     0.555593     0.320711  Biso 1.000000     C
    C   1.0     0.219646     0.519459     0.377131  Biso 1.000000     C
    C   1.0     0.719641     0.519426     0.377121  Biso 1.000000     C
    C   1.0     0.117220     0.489803     0.448175  Biso 1.000000     C
    C   1.0     0.617224     0.489792     0.448178  Biso 1.000000     C
    C   1.0     0.309642     0.596376     0.186365  Biso 1.000000     C
    C   1.0     0.809634     0.596304     0.186355  Biso 1.000000     C
    C   1.0     0.045137     0.524076     0.751709  Biso 1.000000     C
    C   1.0     0.545133     0.524055     0.751709  Biso 1.000000     C
    C   1.0     0.059066     0.608138     0.663611  Biso 1.000000     C
    C   1.0     0.559068     0.608119     0.663611  Biso 1.000000     C
    C   1.0     0.395616     0.158243     0.651311  Biso 1.000000     C
    C   1.0     0.895615     0.158248     0.651317  Biso 1.000000     C
    C   1.0     0.405987     0.236476     0.562137  Biso 1.000000     C
    C   1.0     0.905980     0.236475     0.562141  Biso 1.000000     C
    C   1.0     0.162509     0.175145     0.636381  Biso 1.000000     C
    C   1.0     0.662505     0.175121     0.636384  Biso 1.000000     C
    C   1.0     0.172313     0.258494     0.548619  Biso 1.000000     C
    C   1.0     0.672314     0.258473     0.548623  Biso 1.000000     C
    C   1.0     0.262674     0.657212     0.216727  Biso 1.000000     C
    C   1.0     0.762644     0.657122     0.216696  Biso 1.000000     C
    C   1.0     0.349302     0.974071     0.886229  Biso 1.000000     C
    C   1.0     0.849332     0.974063     0.886229  Biso 1.000000     C
    C   1.0     0.382755     0.937456     0.836707  Biso 1.000000     C
    C   1.0     0.882777     0.937463     0.836697  Biso 1.000000     C
    C   1.0     0.347285     0.896658     0.781669  Biso 1.000000     C
    C   1.0     0.847299     0.896662     0.781663  Biso 1.000000     C
    C   1.0     0.278359     0.895020     0.773624  Biso 1.000000     C
    C   1.0     0.778368     0.895006     0.773632  Biso 1.000000     C
    C   1.0     0.246996     0.940170     0.821408  Biso 1.000000     C
    C   1.0     0.747010     0.940143     0.821427  Biso 1.000000     C
    C   1.0     0.281028     0.976495     0.877695  Biso 1.000000     C
    C   1.0     0.781052     0.976471     0.877710  Biso 1.000000     C
    C   1.0     0.383676     0.006199     0.948361  Biso 1.000000     C
    C   1.0     0.883722     0.006191     0.948355  Biso 1.000000     C
    C   1.0     0.191780     0.900133     0.686542  Biso 1.000000     C
    C   1.0     0.691783     0.900118     0.686552  Biso 1.000000     C
    C   1.0     0.455172    -0.027349     0.252048  Biso 1.000000     C
    C   1.0     0.955169    -0.027387     0.252053  Biso 1.000000     C
    C   1.0     0.441492     0.888513     0.164015  Biso 1.000000     C
    C   1.0     0.941494     0.888484     0.164017  Biso 1.000000     C
    C   1.0     0.105050     0.337647     0.151557  Biso 1.000000     C
    C   1.0     0.605048     0.337622     0.151541  Biso 1.000000     C
    C   1.0     0.095076     0.259451     0.062413  Biso 1.000000     C
    C   1.0     0.595057     0.259415     0.062400  Biso 1.000000     C
    C   1.0     0.338405     0.321368     0.136245  Biso 1.000000     C
    C   1.0     0.838403     0.321302     0.136238  Biso 1.000000     C
    C   1.0     0.328958     0.238127     0.048487  Biso 1.000000     C
    C   1.0     0.828974     0.238073     0.048477  Biso 1.000000     C
    C   1.0     0.237805     0.838363     0.717519  Biso 1.000000     C
    C   1.0     0.737807     0.838346     0.717532  Biso 1.000000     C
    C   1.0     0.348805     0.474273     0.613995  Biso 1.000000     C
    C   1.0     0.848809     0.474271     0.613996  Biso 1.000000     C
    C   1.0     0.382387     0.438113     0.663537  Biso 1.000000     C
    C   1.0     0.882391     0.438120     0.663540  Biso 1.000000     C
    C   1.0     0.346997     0.397613     0.718755  Biso 1.000000     C
    C   1.0     0.847000     0.397617     0.718758  Biso 1.000000     C
    C   1.0     0.278039     0.395841     0.726978  Biso 1.000000     C
    C   1.0     0.778039     0.395833     0.726976  Biso 1.000000     C
    C   1.0     0.246541     0.440459     0.679127  Biso 1.000000     C
    C   1.0     0.746540     0.440443     0.679123  Biso 1.000000     C
    C   1.0     0.280494     0.476465     0.622684  Biso 1.000000     C
    C   1.0     0.780496     0.476452     0.622681  Biso 1.000000     C
    C   1.0     0.382924     0.506125     0.551623  Biso 1.000000     C
    C   1.0     0.882929     0.506119     0.551624  Biso 1.000000     C
    C   1.0     0.190368     0.399928     0.813542  Biso 1.000000     C
    C   1.0     0.690368     0.399915     0.813541  Biso 1.000000     C
    C   1.0     0.455809     0.472862     0.248075  Biso 1.000000     C
    C   1.0     0.955795     0.472823     0.248073  Biso 1.000000     C
    C   1.0     0.441742     0.388532     0.336081  Biso 1.000000     C
    C   1.0     0.941742     0.388506     0.336082  Biso 1.000000     C
    C   1.0     0.104494     0.838050     0.348318  Biso 1.000000     C
    C   1.0     0.604500     0.838060     0.348326  Biso 1.000000     C
    C   1.0     0.094330     0.759954     0.437521  Biso 1.000000     C
    C   1.0     0.594328     0.759950     0.437525  Biso 1.000000     C
    C   1.0     0.337540     0.820462     0.363513  Biso 1.000000     C
    C   1.0     0.837522     0.820422     0.363505  Biso 1.000000     C
    C   1.0     0.327769     0.737293     0.451326  Biso 1.000000     C
    C   1.0     0.827766     0.737271     0.451323  Biso 1.000000     C
    C   1.0     0.237605     0.339402     0.783318  Biso 1.000000     C
    C   1.0     0.737604     0.339389     0.783314  Biso 1.000000     C
    C   1.0     0.151557     0.022142     0.113726  Biso 1.000000     C
    C   1.0     0.651560     0.022112     0.113723  Biso 1.000000     C
    C   1.0     0.117845     0.057612     0.163500  Biso 1.000000     C
    C   1.0     0.617851     0.057599     0.163492  Biso 1.000000     C
    C   1.0     0.153213     0.098093     0.218648  Biso 1.000000     C
    C   1.0     0.653220     0.098086     0.218639  Biso 1.000000     C
    C   1.0     0.222295     0.100498     0.226562  Biso 1.000000     C
    C   1.0     0.722299     0.100478     0.226556  Biso 1.000000     C
    C   1.0     0.253900     0.056308     0.178528  Biso 1.000000     C
    C   1.0     0.753901     0.056271     0.178527  Biso 1.000000     C
    C   1.0     0.219960     0.020359     0.122138  Biso 1.000000     C
    C   1.0     0.719960     0.020317     0.122138  Biso 1.000000     C
    C   1.0     0.117344     0.990649     0.051441  Biso 1.000000     C
    C   1.0     0.617348     0.990619     0.051437  Biso 1.000000     C
    C   1.0     0.309715     0.096918     0.313408  Biso 1.000000     C
    C   1.0     0.809713     0.096900     0.313408  Biso 1.000000     C
    C   1.0     0.044609     0.000000     0.747793  Biso 1.000000     C
    C   1.0     0.544603     0.000000     0.747800  Biso 1.000000     C
    C   1.0     0.058716     0.107741     0.835807  Biso 1.000000     C
    C   1.0     0.558705     0.107720     0.835813  Biso 1.000000     C
    C   1.0     0.395651     0.658359     0.848064  Biso 1.000000     C
    C   1.0     0.895652     0.658364     0.848070  Biso 1.000000     C
    C   1.0     0.405655     0.736130     0.937330  Biso 1.000000     C
    C   1.0     0.905652     0.736135     0.937336  Biso 1.000000     C
    C   1.0     0.162316     0.675924     0.863692  Biso 1.000000     C
    C   1.0     0.662314     0.675892     0.863696  Biso 1.000000     C
    C   1.0     0.171709     0.758906     0.951518  Biso 1.000000     C
    C   1.0     0.671705     0.758871     0.951522  Biso 1.000000     C
    C   1.0     0.262731     0.157329     0.282698  Biso 1.000000     C
    C   1.0     0.762738     0.157317     0.282689  Biso 1.000000     C
    N   1.0     0.054024     0.454534     0.708275  Biso 1.000000     N
    N   1.0     0.554017     0.454512     0.708275  Biso 1.000000     N
    N   1.0     0.063161     0.508956     0.651312  Biso 1.000000     N
    N   1.0     0.563158     0.508935     0.651312  Biso 1.000000     N
    N   1.0     0.047659     0.621316     0.725897  Biso 1.000000     N
    N   1.0     0.547661     0.621297     0.725898  Biso 1.000000     N
    N   1.0    -0.041699     0.228380     0.651015  Biso 1.000000     N
    N   1.0     0.458296     0.228364     0.651011  Biso 1.000000     N
    N   1.0    -0.035211     0.279112     0.592763  Biso 1.000000     N
    N   1.0     0.464789     0.279100     0.592760  Biso 1.000000     N
    N   1.0     0.361115     0.160407     0.596633  Biso 1.000000     N
    N   1.0     0.861112     0.160403     0.596639  Biso 1.000000     N
    N   1.0     0.121687     0.240137     0.639823  Biso 1.000000     N
    N   1.0     0.621684     0.240115     0.639825  Biso 1.000000     N
    N   1.0     0.127878     0.294262     0.583000  Biso 1.000000     N
    N   1.0     0.627878     0.294242     0.583003  Biso 1.000000     N
    N   1.0     0.194975     0.183402     0.579978  Biso 1.000000     N
    N   1.0     0.694973     0.183378     0.579982  Biso 1.000000     N
    N   1.0     0.446140     0.042034     0.208595  Biso 1.000000     N
    N   1.0     0.946142     0.042001     0.208601  Biso 1.000000     N
    N   1.0     0.437165    -0.012439     0.151663  Biso 1.000000     N
    N   1.0     0.937170    -0.012467     0.151668  Biso 1.000000     N
    N   1.0     0.452892     0.875478     0.226287  Biso 1.000000     N
    N   1.0     0.952888     0.875442     0.226290  Biso 1.000000     N
    N   1.0     0.542334     0.267617     0.151148  Biso 1.000000     N
    N   1.0     0.000000     0.267615     0.151161  Biso 1.000000     N
    N   1.0     0.536090     0.216906     0.092914  Biso 1.000000     N
    N   1.0     0.000000     0.216912     0.092926  Biso 1.000000     N
    N   1.0     0.139820     0.335458     0.096964  Biso 1.000000     N
    N   1.0     0.639813     0.335410     0.096948  Biso 1.000000     N
    N   1.0     0.379226     0.256402     0.139751  Biso 1.000000     N
    N   1.0     0.879230     0.256346     0.139746  Biso 1.000000     N
    N   1.0     0.373268     0.202335     0.082932  Biso 1.000000     N
    N   1.0     0.873284     0.202287     0.082926  Biso 1.000000     N
    N   1.0     0.306162     0.313178     0.079797  Biso 1.000000     N
    N   1.0     0.806167     0.313114     0.079786  Biso 1.000000     N
    N   1.0     0.446544     0.542118     0.291513  Biso 1.000000     N
    N   1.0     0.946530     0.542082     0.291508  Biso 1.000000     N
    N   1.0     0.437318     0.487528     0.348423  Biso 1.000000     N
    N   1.0     0.937314     0.487501     0.348421  Biso 1.000000     N
    N   1.0     0.453462     0.375668     0.273828  Biso 1.000000     N
    N   1.0     0.953455     0.375635     0.273829  Biso 1.000000     N
    N   1.0     0.541797     0.768029     0.348780  Biso 1.000000     N
    N   1.0     0.000000     0.768010     0.348775  Biso 1.000000     N
    N   1.0     0.535427     0.717362     0.407045  Biso 1.000000     N
    N   1.0     0.000000     0.717352     0.407043  Biso 1.000000     N
    N   1.0     0.139147     0.835934     0.402913  Biso 1.000000     N
    N   1.0     0.639150     0.835930     0.402920  Biso 1.000000     N
    N   1.0     0.378403     0.755550     0.360133  Biso 1.000000     N
    N   1.0     0.878385     0.755508     0.360124  Biso 1.000000     N
    N   1.0     0.372242     0.701530     0.416988  Biso 1.000000     N
    N   1.0     0.872233     0.701500     0.416982  Biso 1.000000     N
    N   1.0     0.305065     0.812285     0.419907  Biso 1.000000     N
    N   1.0     0.805057     0.812257     0.419904  Biso 1.000000     N
    N   1.0     0.053906     0.954240     0.791165  Biso 1.000000     N
    N   1.0     0.553895     0.954219     0.791172  Biso 1.000000     N
    N   1.0     0.063166     0.000000     0.848086  Biso 1.000000     N
    N   1.0     0.563152     0.000000     0.848093  Biso 1.000000     N
    N   1.0     0.046978     0.120718     0.773597  Biso 1.000000     N
    N   1.0     0.546971     0.120699     0.773603  Biso 1.000000     N
    N   1.0    -0.041614     0.728349     0.848542  Biso 1.000000     N
    N   1.0     0.458381     0.728333     0.848538  Biso 1.000000     N
    N   1.0    -0.035364     0.778791     0.906866  Biso 1.000000     N
    N   1.0     0.464632     0.778775     0.906863  Biso 1.000000     N
    N   1.0     0.360872     0.660325     0.902683  Biso 1.000000     N
    N   1.0     0.860873     0.660322     0.902690  Biso 1.000000     N
    N   1.0     0.121555     0.740985     0.860213  Biso 1.000000     N
    N   1.0     0.621554     0.740956     0.860216  Biso 1.000000     N
    N   1.0     0.127481     0.794908     0.917087  Biso 1.000000     N
    N   1.0     0.627480     0.794878     0.917090  Biso 1.000000     N
    N   1.0     0.194498     0.683888     0.920158  Biso 1.000000     N
    N   1.0     0.694494     0.683853     0.920162  Biso 1.000000     N
    O   1.0     0.155277     0.497794     0.496910  Biso 1.000000     O
    O   1.0     0.655285     0.497784     0.496910  Biso 1.000000     O
    O   1.0     0.051294     0.454554     0.452225  Biso 1.000000     O
    O   1.0     0.551298     0.454546     0.452232  Biso 1.000000     O
    O   1.0     0.374560     0.630999     0.194159  Biso 1.000000     O
    O   1.0     0.874549     0.630977     0.194150  Biso 1.000000     O
    O   1.0     0.280095     0.512705     0.154914  Biso 1.000000     O
    O   1.0     0.780109     0.512605     0.154916  Biso 1.000000     O
    O   1.0     0.345792    -0.000272    -0.002794  Biso 1.000000     O
    O   1.0     0.845849    -0.000297    -0.002790  Biso 1.000000     O
    O   1.0     0.449671     0.040005    -0.047817  Biso 1.000000     O
    O   1.0     0.949716     0.040010    -0.047832  Biso 1.000000     O
    O   1.0     0.126714     0.866273     0.693509  Biso 1.000000     O
    O   1.0     0.626716     0.866263     0.693518  Biso 1.000000     O
    O   1.0     0.222409     0.983736     0.655438  Biso 1.000000     O
    O   1.0     0.722414     0.983716     0.655446  Biso 1.000000     O
    O   1.0     0.344867     0.497698     0.502870  Biso 1.000000     O
    O   1.0     0.844872     0.497690     0.502871  Biso 1.000000     O
    O   1.0     0.448848     0.541692     0.547570  Biso 1.000000     O
    O   1.0     0.948852     0.541685     0.547570  Biso 1.000000     O
    O   1.0     0.125473     0.364776     0.805731  Biso 1.000000     O
    O   1.0     0.625473     0.364768     0.805729  Biso 1.000000     O
    O   1.0     0.219626     0.483795     0.844957  Biso 1.000000     O
    O   1.0     0.719628     0.483780     0.844956  Biso 1.000000     O
    O   1.0     0.155206     0.999654     0.000000  Biso 1.000000     O
    O   1.0     0.655210     0.999647     0.000000  Biso 1.000000     O
    O   1.0     0.051400     0.954833     0.000000  Biso 1.000000     O
    O   1.0     0.551405     0.954785     0.000000  Biso 1.000000     O
    O   1.0     0.374721     0.132668     0.306503  Biso 1.000000     O
    O   1.0     0.874719     0.132640     0.306506  Biso 1.000000     O
    O   1.0     0.280050     0.012686     0.344394  Biso 1.000000     O
    O   1.0     0.780039     0.012677     0.344398  Biso 1.000000     O
   Cd   1.0     0.060375     0.411209     0.560323  Biso 1.000000    Cd
   Cd   1.0     0.560381     0.411192     0.560324  Biso 1.000000    Cd
   Cd   1.0     0.056917     0.277440     0.719278  Biso 1.000000    Cd
   Cd   1.0     0.556912     0.277418     0.719279  Biso 1.000000    Cd
   Cd   1.0     0.254289     0.054419     0.553502  Biso 1.000000    Cd
   Cd   1.0     0.754292     0.054398     0.553508  Biso 1.000000    Cd
   Cd   1.0     0.440616     0.084970     0.060431  Biso 1.000000    Cd
   Cd   1.0     0.940656     0.084945     0.060432  Biso 1.000000    Cd
   Cd   1.0     0.443477     0.219088     0.219503  Biso 1.000000    Cd
   Cd   1.0     0.943475     0.219051     0.219507  Biso 1.000000    Cd
   Cd   1.0     0.246511     0.441738     0.053436  Biso 1.000000    Cd
   Cd   1.0     0.746515     0.441670     0.053428  Biso 1.000000    Cd
   Cd   1.0     0.439910     0.584854     0.439530  Biso 1.000000    Cd
   Cd   1.0     0.939910     0.584834     0.439526  Biso 1.000000    Cd
   Cd   1.0     0.443148     0.718780     0.280550  Biso 1.000000    Cd
   Cd   1.0     0.943134     0.718740     0.280546  Biso 1.000000    Cd
   Cd   1.0     0.246026     0.941831     0.446105  Biso 1.000000    Cd
   Cd   1.0     0.746033     0.941814     0.446111  Biso 1.000000    Cd
   Cd   1.0     0.059766     0.911811     0.939566  Biso 1.000000    Cd
   Cd   1.0     0.559768     0.911779     0.939568  Biso 1.000000    Cd
   Cd   1.0     0.057433     0.777876     0.780202  Biso 1.000000    Cd
   Cd   1.0     0.557433     0.777857     0.780204  Biso 1.000000    Cd
   Cd   1.0     0.253966     0.554784     0.946289  Biso 1.000000    Cd
   Cd   1.0     0.753970     0.554754     0.946292  Biso 1.000000    Cd
