#======================================================================

# CRYSTAL DATA

#----------------------------------------------------------------------

data_VESTA_phase_1


_pd_phase_name                         MOF
_cell_length_a                         18.79500
_cell_length_b                         18.72600
_cell_length_c                         18.72400
_cell_angle_alpha                      60.22400
_cell_angle_beta                       60.40100
_cell_angle_gamma                      60.36600
_symmetry_space_group_name_H-M         "P 1"
_symmetry_Int_Tables_number            1

loop_
_symmetry_equiv_pos_as_xyz
   "x, y, z"

loop_
   _atom_site_label
   _atom_site_occupancy
   _atom_site_fract_x
   _atom_site_fract_y
   _atom_site_fract_z
   _atom_site_adp_type
   _atom_site_B_iso_or_equiv
   _atom_site_type_symbol
    H   1.0     0.318653     0.089251     0.796022  Biso 1.000000     H
    H   1.0     0.090346     0.320457     0.794934  Biso 1.000000     H
    H   1.0     0.795900     0.796068     0.319447  Biso 1.000000     H
    H   1.0     0.794823     0.794209     0.089437  Biso 1.000000     H
    H   1.0     0.318157     0.796770     0.796606  Biso 1.000000     H
    H   1.0     0.090441     0.793759     0.793839  Biso 1.000000     H
    H   1.0     0.795649     0.320137     0.089376  Biso 1.000000     H
    H   1.0     0.795463     0.089300     0.319906  Biso 1.000000     H
    H   1.0     0.318617     0.796183     0.089281  Biso 1.000000     H
    H   1.0     0.090343     0.794788     0.320269  Biso 1.000000     H
    H   1.0     0.794988     0.089385     0.794227  Biso 1.000000     H
    H   1.0     0.795856     0.319416     0.796120  Biso 1.000000     H
    C   1.0     0.324547     0.220168     0.727419  Biso 1.000000     C
    C   1.0     0.283862     0.158998     0.778548  Biso 1.000000     C
    C   1.0     0.221094     0.324918     0.726936  Biso 1.000000     C
    C   1.0     0.159583     0.284842     0.777962  Biso 1.000000     C
    C   1.0     0.727387     0.727776     0.324894  Biso 1.000000     C
    C   1.0     0.778468     0.778557     0.284264  Biso 1.000000     C
    C   1.0     0.726912     0.726946     0.220722  Biso 1.000000     C
    C   1.0     0.777894     0.777557     0.159072  Biso 1.000000     C
    C   1.0     0.324595     0.727936     0.727866  Biso 1.000000     C
    C   1.0     0.283595     0.778936     0.778829  Biso 1.000000     C
    C   1.0     0.221374     0.726593     0.726634  Biso 1.000000     C
    C   1.0     0.159631     0.777317     0.777339  Biso 1.000000     C
    C   1.0     0.727034     0.324946     0.220453  Biso 1.000000     C
    C   1.0     0.778336     0.284664     0.159055  Biso 1.000000     C
    C   1.0     0.726923     0.220341     0.324934  Biso 1.000000     C
    C   1.0     0.778231     0.159020     0.284545  Biso 1.000000     C
    C   1.0     0.324695     0.727419     0.220134  Biso 1.000000     C
    C   1.0     0.283896     0.778599     0.159016  Biso 1.000000     C
    C   1.0     0.221027     0.726772     0.325025  Biso 1.000000     C
    C   1.0     0.159597     0.777842     0.284789  Biso 1.000000     C
    C   1.0     0.726893     0.220585     0.726863  Biso 1.000000     C
    C   1.0     0.777925     0.159063     0.777516  Biso 1.000000     C
    C   1.0     0.727275     0.325128     0.727711  Biso 1.000000     C
    C   1.0     0.778388     0.284331     0.778531  Biso 1.000000     C
    C   1.0     0.308357     0.307774     0.691627  Biso 1.000000     C
    C   1.0     0.192289     0.192752     0.807705  Biso 1.000000     C
    C   1.0     0.135967     0.136731     0.864043  Biso 1.000000     C
    C   1.0     0.364467     0.363683     0.635416  Biso 1.000000     C
    C   1.0     0.691618     0.692072     0.308400  Biso 1.000000     C
    C   1.0     0.807609     0.807267     0.192197  Biso 1.000000     C
    C   1.0     0.863999     0.863262     0.135835  Biso 1.000000     C
    C   1.0     0.635422     0.636205     0.364566  Biso 1.000000     C
    C   1.0     0.308696     0.691887     0.691884  Biso 1.000000     C
    C   1.0     0.192023     0.807412     0.807400  Biso 1.000000     C
    C   1.0     0.135523     0.863577     0.863570  Biso 1.000000     C
    C   1.0     0.364944     0.635878     0.635882  Biso 1.000000     C
    C   1.0     0.691303     0.307988     0.308088  Biso 1.000000     C
    C   1.0     0.807862     0.192575     0.192482  Biso 1.000000     C
    C   1.0     0.864449     0.136452     0.136281  Biso 1.000000     C
    C   1.0     0.634973     0.363971     0.364107  Biso 1.000000     C
    C   1.0     0.308334     0.691614     0.307772  Biso 1.000000     C
    C   1.0     0.192333     0.807660     0.192731  Biso 1.000000     C
    C   1.0     0.136003     0.864052     0.136669  Biso 1.000000     C
    C   1.0     0.364438     0.635444     0.363728  Biso 1.000000     C
    C   1.0     0.691636     0.308354     0.692076  Biso 1.000000     C
    C   1.0     0.807583     0.192252     0.807209  Biso 1.000000     C
    C   1.0     0.863972     0.135885     0.863260  Biso 1.000000     C
    C   1.0     0.635422     0.364539     0.636181  Biso 1.000000     C
    O   1.0     0.174810     0.054548     0.885653  Biso 1.000000     O
    O   1.0     0.445708     0.323700     0.614589  Biso 1.000000     O
    O   1.0     0.054267     0.176078     0.885384  Biso 1.000000     O
    O   1.0     0.324913     0.445396     0.614401  Biso 1.000000     O
    O   1.0     0.885614     0.884964     0.175148  Biso 1.000000     O
    O   1.0     0.614571     0.615797     0.446280  Biso 1.000000     O
    O   1.0     0.885364     0.884240     0.053666  Biso 1.000000     O
    O   1.0     0.614452     0.615033     0.324552  Biso 1.000000     O
    O   1.0     0.174349     0.885481     0.885464  Biso 1.000000     O
    O   1.0     0.446204     0.615492     0.615425  Biso 1.000000     O
    O   1.0     0.053812     0.884488     0.884535  Biso 1.000000     O
    O   1.0     0.325368     0.614578     0.614608  Biso 1.000000     O
    O   1.0     0.886051     0.175832     0.054112  Biso 1.000000     O
    O   1.0     0.614181     0.445706     0.324100  Biso 1.000000     O
    O   1.0     0.886090     0.054257     0.175601  Biso 1.000000     O
    O   1.0     0.613944     0.323938     0.445811  Biso 1.000000     O
    O   1.0     0.174821     0.885786     0.054518  Biso 1.000000     O
    O   1.0     0.445681     0.614800     0.323808  Biso 1.000000     O
    O   1.0     0.054310     0.885403     0.175974  Biso 1.000000     O
    O   1.0     0.324888     0.614360     0.445409  Biso 1.000000     O
    O   1.0     0.885223     0.053700     0.884410  Biso 1.000000     O
    O   1.0     0.614370     0.324529     0.615086  Biso 1.000000     O
    O   1.0     0.885706     0.175226     0.884803  Biso 1.000000     O
    O   1.0     0.614665     0.446269     0.615641  Biso 1.000000     O
    O   1.0    -0.000332     0.000018    -0.000034  Biso 1.000000     O
    O   1.0     0.500165     0.499951     0.499950  Biso 1.000000     O
   Zn   1.0     0.542428     0.371080     0.542819  Biso 1.000000    Zn
   Zn   1.0     0.372097     0.542470     0.542493  Biso 1.000000    Zn
   Zn   1.0     0.542760     0.543470     0.543361  Biso 1.000000    Zn
   Zn   1.0     0.542494     0.542813     0.371113  Biso 1.000000    Zn
   Zn   1.0     0.127306     0.957673     0.957620  Biso 1.000000    Zn
   Zn   1.0     0.957618     0.128468     0.957217  Biso 1.000000    Zn
   Zn   1.0     0.957609     0.957242     0.128383  Biso 1.000000    Zn
   Zn   1.0     0.957282     0.956563     0.956667  Biso 1.000000    Zn
