#======================================================================

# CRYSTAL DATA

#----------------------------------------------------------------------

data_VESTA_phase_1


_pd_phase_name                         MOF
_cell_length_a                         18.39000
_cell_length_b                         18.38800
_cell_length_c                         18.39300
_cell_angle_alpha                      60.43700
_cell_angle_beta                       60.42800
_cell_angle_gamma                      60.43600
_symmetry_space_group_name_H-M         "P 1"
_symmetry_Int_Tables_number            1

loop_
_symmetry_equiv_pos_as_xyz
   "x, y, z"

loop_
   _atom_site_label
   _atom_site_occupancy
   _atom_site_fract_x
   _atom_site_fract_y
   _atom_site_fract_z
   _atom_site_adp_type
   _atom_site_B_iso_or_equiv
   _atom_site_type_symbol
    H   1.0     0.335873     0.048493     0.567839  Biso 1.000000     H
    H   1.0     0.046818     0.335928     0.047011  Biso 1.000000     H
    H   1.0     0.567984     0.048554     0.335907  Biso 1.000000     H
    H   1.0     0.049251     0.567171     0.049238  Biso 1.000000     H
    H   1.0     0.335878     0.567862     0.048482  Biso 1.000000     H
    H   1.0     0.049307     0.049260     0.567095  Biso 1.000000     H
    H   1.0     0.567940     0.335876     0.048602  Biso 1.000000     H
    H   1.0     0.046806     0.047006     0.335964  Biso 1.000000     H
    H   1.0     0.335934     0.046982     0.046982  Biso 1.000000     H
    H   1.0     0.048483     0.567928     0.335909  Biso 1.000000     H
    H   1.0     0.567273     0.049174     0.049207  Biso 1.000000     H
    H   1.0     0.048546     0.335878     0.567860  Biso 1.000000     H
    H   1.0     0.951448     0.664121     0.432132  Biso 1.000000     H
    H   1.0     0.664061     0.953005     0.953018  Biso 1.000000     H
    H   1.0     0.951512     0.432071     0.664083  Biso 1.000000     H
    H   1.0     0.432722     0.950814     0.950793  Biso 1.000000     H
    H   1.0     0.432048     0.664127     0.951399  Biso 1.000000     H
    H   1.0     0.950680     0.950746     0.432893  Biso 1.000000     H
    H   1.0     0.664111     0.432141     0.951518  Biso 1.000000     H
    H   1.0     0.953180     0.953000     0.664025  Biso 1.000000     H
    H   1.0     0.953165     0.664071     0.952986  Biso 1.000000     H
    H   1.0     0.432010     0.951450     0.664081  Biso 1.000000     H
    H   1.0     0.950731     0.432827     0.950761  Biso 1.000000     H
    H   1.0     0.664121     0.951511     0.432149  Biso 1.000000     H
    C   1.0     0.407771     0.026856     0.538914  Biso 1.000000     C
    C   1.0     0.025941     0.407797     0.026052  Biso 1.000000     C
    C   1.0     0.538978     0.026904     0.407786  Biso 1.000000     C
    C   1.0     0.027284     0.538519     0.027279  Biso 1.000000     C
    C   1.0     0.407775     0.538932     0.026844  Biso 1.000000     C
    C   1.0     0.027310     0.027293     0.538480  Biso 1.000000     C
    C   1.0     0.538958     0.407769     0.026925  Biso 1.000000     C
    C   1.0     0.025928     0.026052     0.407817  Biso 1.000000     C
    C   1.0     0.407806     0.026025     0.026034  Biso 1.000000     C
    C   1.0     0.026853     0.538957     0.407790  Biso 1.000000     C
    C   1.0     0.538566     0.027243     0.027271  Biso 1.000000     C
    C   1.0     0.026889     0.407774     0.538916  Biso 1.000000     C
    C   1.0     0.973105     0.592225     0.461076  Biso 1.000000     C
    C   1.0     0.592189     0.973962     0.973966  Biso 1.000000     C
    C   1.0     0.973142     0.461042     0.592202  Biso 1.000000     C
    C   1.0     0.461429     0.972745     0.972729  Biso 1.000000     C
    C   1.0     0.461030     0.592233     0.973076  Biso 1.000000     C
    C   1.0     0.972677     0.972713     0.461508  Biso 1.000000     C
    C   1.0     0.592214     0.461071     0.973156  Biso 1.000000     C
    C   1.0     0.974059     0.973955     0.592171  Biso 1.000000     C
    C   1.0     0.974042     0.592201     0.973946  Biso 1.000000     C
    C   1.0     0.461016     0.973100     0.592202  Biso 1.000000     C
    C   1.0     0.972699     0.461480     0.972720  Biso 1.000000     C
    C   1.0     0.592223     0.973148     0.461074  Biso 1.000000     C
    C   1.0     0.389138     0.111776     0.389091  Biso 1.000000     C
    C   1.0     0.446421     0.054078     0.446382  Biso 1.000000     C
    C   1.0     0.110893     0.388403     0.111029  Biso 1.000000     C
    C   1.0     0.053585     0.445977     0.053684  Biso 1.000000     C
    C   1.0     0.389107     0.389088     0.111804  Biso 1.000000     C
    C   1.0     0.446406     0.446384     0.054096  Biso 1.000000     C
    C   1.0     0.110929     0.111031     0.388373  Biso 1.000000     C
    C   1.0     0.053607     0.053680     0.445962  Biso 1.000000     C
    C   1.0     0.388462     0.110977     0.111003  Biso 1.000000     C
    C   1.0     0.446019     0.053643     0.053653  Biso 1.000000     C
    C   1.0     0.111792     0.389108     0.389075  Biso 1.000000     C
    C   1.0     0.054074     0.446404     0.446383  Biso 1.000000     C
    C   1.0     0.888203     0.610891     0.610917  Biso 1.000000     C
    C   1.0     0.945921     0.553595     0.553609  Biso 1.000000     C
    C   1.0     0.611532     0.889016     0.888992  Biso 1.000000     C
    C   1.0     0.553975     0.946346     0.946346  Biso 1.000000     C
    C   1.0     0.610881     0.610915     0.888189  Biso 1.000000     C
    C   1.0     0.553582     0.553618     0.945903  Biso 1.000000     C
    C   1.0     0.889060     0.888973     0.611615  Biso 1.000000     C
    C   1.0     0.946380     0.946326     0.554026  Biso 1.000000     C
    C   1.0     0.889093     0.611595     0.888967  Biso 1.000000     C
    C   1.0     0.946398     0.554021     0.946314  Biso 1.000000     C
    C   1.0     0.610855     0.888227     0.610897  Biso 1.000000     C
    C   1.0     0.553572     0.945925     0.553605  Biso 1.000000     C
    O   1.0     0.249891     0.249879     0.249871  Biso 1.000000     O
    O   1.0     0.750100     0.750121     0.750118  Biso 1.000000     O
    O   1.0     0.428601     0.134164     0.305450  Biso 1.000000     O
    O   1.0     0.133441     0.427834     0.133520  Biso 1.000000     O
    O   1.0     0.305474     0.133909     0.428539  Biso 1.000000     O
    O   1.0     0.132533     0.304721     0.132737  Biso 1.000000     O
    O   1.0     0.428564     0.305434     0.134193  Biso 1.000000     O
    O   1.0     0.132500     0.132792     0.304713  Biso 1.000000     O
    O   1.0     0.305445     0.428545     0.133895  Biso 1.000000     O
    O   1.0     0.133513     0.133508     0.427779  Biso 1.000000     O
    O   1.0     0.427911     0.133442     0.133555  Biso 1.000000     O
    O   1.0     0.134089     0.305448     0.428517  Biso 1.000000     O
    O   1.0     0.304781     0.132664     0.132688  Biso 1.000000     O
    O   1.0     0.134022     0.428566     0.305431  Biso 1.000000     O
    O   1.0     0.865979     0.571433     0.694561  Biso 1.000000     O
    O   1.0     0.572083     0.866557     0.866435  Biso 1.000000     O
    O   1.0     0.865900     0.694550     0.571475  Biso 1.000000     O
    O   1.0     0.695213     0.867328     0.867307  Biso 1.000000     O
    O   1.0     0.694542     0.571458     0.866088  Biso 1.000000     O
    O   1.0     0.867488     0.867213     0.695275  Biso 1.000000     O
    O   1.0     0.571424     0.694569     0.865803  Biso 1.000000     O
    O   1.0     0.866481     0.866491     0.572210  Biso 1.000000     O
    O   1.0     0.866535     0.572164     0.866485  Biso 1.000000     O
    O   1.0     0.694520     0.866096     0.571449  Biso 1.000000     O
    O   1.0     0.867464     0.695278     0.867249  Biso 1.000000     O
    O   1.0     0.571392     0.865834     0.694538  Biso 1.000000     O
   Zn   1.0     0.380169     0.206971     0.207039  Biso 1.000000    Zn
   Zn   1.0     0.206968     0.380151     0.206969  Biso 1.000000    Zn
   Zn   1.0     0.207038     0.206972     0.380117  Biso 1.000000    Zn
   Zn   1.0     0.205960     0.206046     0.206012  Biso 1.000000    Zn
   Zn   1.0     0.793022     0.619849     0.793022  Biso 1.000000    Zn
   Zn   1.0     0.619823     0.793030     0.792950  Biso 1.000000    Zn
   Zn   1.0     0.792954     0.793028     0.619873  Biso 1.000000    Zn
   Zn   1.0     0.794034     0.793953     0.793976  Biso 1.000000    Zn
