#======================================================================

# CRYSTAL DATA

#----------------------------------------------------------------------

data_VESTA_phase_1


_pd_phase_name                         MOF
_cell_length_a                         26.09000
_cell_length_b                         26.08700
_cell_length_c                         26.09300
_cell_angle_alpha                      90.01500
_cell_angle_beta                       90.02800
_cell_angle_gamma                      90.04200
_symmetry_space_group_name_H-M         "P 1"
_symmetry_Int_Tables_number            1

loop_
_symmetry_equiv_pos_as_xyz
   "x, y, z"

loop_
   _atom_site_label
   _atom_site_occupancy
   _atom_site_fract_x
   _atom_site_fract_y
   _atom_site_fract_z
   _atom_site_adp_type
   _atom_site_B_iso_or_equiv
   _atom_site_type_symbol
    H   1.0     0.191862     0.047989     0.191673  Biso 1.000000     H
    H   1.0     0.190803     0.548016     0.692730  Biso 1.000000     H
    H   1.0     0.692807     0.047930     0.690726  Biso 1.000000     H
    H   1.0     0.691652     0.547982     0.191874  Biso 1.000000     H
    H   1.0     0.808327     0.951931     0.191939  Biso 1.000000     H
    H   1.0     0.807144     0.451924     0.690697  Biso 1.000000     H
    H   1.0     0.309236     0.951933     0.692820  Biso 1.000000     H
    H   1.0     0.308129     0.451932     0.191753  Biso 1.000000     H
    H   1.0     0.807158     0.048141     0.809185  Biso 1.000000     H
    H   1.0     0.808217     0.548200     0.308154  Biso 1.000000     H
    H   1.0     0.308175     0.048210     0.308206  Biso 1.000000     H
    H   1.0     0.307644     0.548195     0.808737  Biso 1.000000     H
    H   1.0     0.191579     0.951838     0.807880  Biso 1.000000     H
    H   1.0     0.191940     0.451847     0.308294  Biso 1.000000     H
    H   1.0     0.691773     0.951838     0.308116  Biso 1.000000     H
    H   1.0     0.692807     0.451898     0.809059  Biso 1.000000     H
    H   1.0     0.190680     0.192830     0.048014  Biso 1.000000     H
    H   1.0     0.192716     0.690788     0.548005  Biso 1.000000     H
    H   1.0     0.690739     0.192791     0.548007  Biso 1.000000     H
    H   1.0     0.691784     0.691624     0.048100  Biso 1.000000     H
    H   1.0     0.192923     0.809715     0.952070  Biso 1.000000     H
    H   1.0     0.191733     0.308064     0.451903  Biso 1.000000     H
    H   1.0     0.691929     0.808275     0.451817  Biso 1.000000     H
    H   1.0     0.690824     0.307210     0.951889  Biso 1.000000     H
    H   1.0     0.808032     0.808276     0.048158  Biso 1.000000     H
    H   1.0     0.809226     0.307170     0.548160  Biso 1.000000     H
    H   1.0     0.307147     0.809225     0.548164  Biso 1.000000     H
    H   1.0     0.308177     0.308227     0.048167  Biso 1.000000     H
    H   1.0     0.808381     0.192048     0.951913  Biso 1.000000     H
    H   1.0     0.807970     0.691589     0.451847  Biso 1.000000     H
    H   1.0     0.308226     0.191827     0.451912  Biso 1.000000     H
    H   1.0     0.307808     0.691892     0.951800  Biso 1.000000     H
    H   1.0     0.047977     0.190951     0.192590  Biso 1.000000     H
    H   1.0     0.047950     0.692836     0.690727  Biso 1.000000     H
    H   1.0     0.547969     0.191688     0.691838  Biso 1.000000     H
    H   1.0     0.547969     0.692817     0.190724  Biso 1.000000     H
    H   1.0     0.951873     0.191016     0.807431  Biso 1.000000     H
    H   1.0     0.951867     0.692889     0.309249  Biso 1.000000     H
    H   1.0     0.451867     0.191167     0.307526  Biso 1.000000     H
    H   1.0     0.451800     0.691854     0.808237  Biso 1.000000     H
    H   1.0     0.048248     0.807214     0.809145  Biso 1.000000     H
    H   1.0     0.048214     0.309141     0.307207  Biso 1.000000     H
    H   1.0     0.548205     0.807117     0.309220  Biso 1.000000     H
    H   1.0     0.548227     0.308195     0.808163  Biso 1.000000     H
    H   1.0     0.951935     0.807113     0.190740  Biso 1.000000     H
    H   1.0     0.951930     0.308091     0.691736  Biso 1.000000     H
    H   1.0     0.451960     0.807010     0.690630  Biso 1.000000     H
    H   1.0     0.451941     0.308873     0.192474  Biso 1.000000     H
    H   1.0     0.048062     0.190637     0.807074  Biso 1.000000     H
    H   1.0     0.048059     0.692862     0.309261  Biso 1.000000     H
    H   1.0     0.548057     0.191128     0.307527  Biso 1.000000     H
    H   1.0     0.547988     0.691415     0.807917  Biso 1.000000     H
    H   1.0     0.952052     0.807286     0.809216  Biso 1.000000     H
    H   1.0     0.952022     0.309195     0.307244  Biso 1.000000     H
    H   1.0     0.452014     0.807161     0.309267  Biso 1.000000     H
    H   1.0     0.452039     0.308094     0.808375  Biso 1.000000     H
    H   1.0     0.048127     0.807085     0.190751  Biso 1.000000     H
    H   1.0     0.048118     0.307557     0.691222  Biso 1.000000     H
    H   1.0     0.548148     0.806741     0.690481  Biso 1.000000     H
    H   1.0     0.548130     0.308836     0.192477  Biso 1.000000     H
    H   1.0     0.951786     0.191004     0.192627  Biso 1.000000     H
    H   1.0     0.951755     0.692854     0.690848  Biso 1.000000     H
    H   1.0     0.451781     0.191906     0.691731  Biso 1.000000     H
    H   1.0     0.451778     0.692864     0.190768  Biso 1.000000     H
    H   1.0     0.190371     0.193204     0.951827  Biso 1.000000     H
    H   1.0     0.192749     0.690825     0.451827  Biso 1.000000     H
    H   1.0     0.690773     0.192820     0.451831  Biso 1.000000     H
    H   1.0     0.691581     0.691801     0.951905  Biso 1.000000     H
    H   1.0     0.808372     0.192047     0.048098  Biso 1.000000     H
    H   1.0     0.808110     0.691734     0.548037  Biso 1.000000     H
    H   1.0     0.308071     0.191657     0.548087  Biso 1.000000     H
    H   1.0     0.307624     0.691465     0.047992  Biso 1.000000     H
    H   1.0     0.808133     0.808144     0.951965  Biso 1.000000     H
    H   1.0     0.809259     0.307200     0.451984  Biso 1.000000     H
    H   1.0     0.307182     0.809260     0.451987  Biso 1.000000     H
    H   1.0     0.307713     0.308759     0.951983  Biso 1.000000     H
    H   1.0     0.192828     0.809378     0.048270  Biso 1.000000     H
    H   1.0     0.191894     0.308210     0.548077  Biso 1.000000     H
    H   1.0     0.691775     0.808122     0.548006  Biso 1.000000     H
    H   1.0     0.690816     0.307209     0.048077  Biso 1.000000     H
    H   1.0     0.192077     0.048054     0.808425  Biso 1.000000     H
    H   1.0     0.191759     0.548050     0.308143  Biso 1.000000     H
    H   1.0     0.691914     0.048054     0.308289  Biso 1.000000     H
    H   1.0     0.692830     0.548097     0.809060  Biso 1.000000     H
    H   1.0     0.191747     0.951773     0.191884  Biso 1.000000     H
    H   1.0     0.191163     0.451818     0.692429  Biso 1.000000     H
    H   1.0     0.692832     0.951725     0.690784  Biso 1.000000     H
    H   1.0     0.691861     0.451779     0.191763  Biso 1.000000     H
    H   1.0     0.808152     0.048147     0.191796  Biso 1.000000     H
    H   1.0     0.807175     0.548124     0.690703  Biso 1.000000     H
    H   1.0     0.309570     0.048154     0.693196  Biso 1.000000     H
    H   1.0     0.308264     0.548136     0.191918  Biso 1.000000     H
    H   1.0     0.807203     0.951936     0.809231  Biso 1.000000     H
    H   1.0     0.808108     0.451996     0.308361  Biso 1.000000     H
    H   1.0     0.308377     0.951994     0.308098  Biso 1.000000     H
    H   1.0     0.308150     0.451998     0.808286  Biso 1.000000     H
    C   1.0     0.217147     0.026593     0.217039  Biso 1.000000     C
    C   1.0     0.216273     0.526613     0.717903  Biso 1.000000     C
    C   1.0     0.717682     0.026537     0.716497  Biso 1.000000     C
    C   1.0     0.717019     0.526585     0.217158  Biso 1.000000     C
    C   1.0     0.782971     0.973360     0.217192  Biso 1.000000     C
    C   1.0     0.782290     0.473367     0.716433  Biso 1.000000     C
    C   1.0     0.283759     0.973365     0.717948  Biso 1.000000     C
    C   1.0     0.282878     0.473363     0.217108  Biso 1.000000     C
    C   1.0     0.782299     0.026642     0.783447  Biso 1.000000     C
    C   1.0     0.782872     0.526693     0.282900  Biso 1.000000     C
    C   1.0     0.282910     0.026703     0.282873  Biso 1.000000     C
    C   1.0     0.282328     0.526702     0.783443  Biso 1.000000     C
    C   1.0     0.217271     0.973314     0.782989  Biso 1.000000     C
    C   1.0     0.217185     0.473319     0.282948  Biso 1.000000     C
    C   1.0     0.717126     0.973311     0.282878  Biso 1.000000     C
    C   1.0     0.717680     0.473354     0.783334  Biso 1.000000     C
    C   1.0     0.216136     0.218030     0.026609  Biso 1.000000     C
    C   1.0     0.217611     0.716543     0.526600  Biso 1.000000     C
    C   1.0     0.716506     0.217673     0.526602  Biso 1.000000     C
    C   1.0     0.717033     0.717009     0.026669  Biso 1.000000     C
    C   1.0     0.217889     0.784035     0.973461  Biso 1.000000     C
    C   1.0     0.217081     0.282805     0.473346  Biso 1.000000     C
    C   1.0     0.717147     0.782898     0.473274  Biso 1.000000     C
    C   1.0     0.716383     0.282168     0.973337  Biso 1.000000     C
    C   1.0     0.782759     0.782911     0.026695  Biso 1.000000     C
    C   1.0     0.783479     0.282301     0.526680  Biso 1.000000     C
    C   1.0     0.282273     0.783485     0.526681  Biso 1.000000     C
    C   1.0     0.282531     0.283253     0.026687  Biso 1.000000     C
    C   1.0     0.782830     0.217097     0.973351  Biso 1.000000     C
    C   1.0     0.782755     0.716969     0.473292  Biso 1.000000     C
    C   1.0     0.282887     0.217088     0.473353  Biso 1.000000     C
    C   1.0     0.282804     0.717427     0.973309  Biso 1.000000     C
    C   1.0     0.026588     0.216656     0.217527  Biso 1.000000     C
    C   1.0     0.026571     0.717710     0.716499  Biso 1.000000     C
    C   1.0     0.526586     0.217046     0.717132  Biso 1.000000     C
    C   1.0     0.526580     0.717685     0.216495  Biso 1.000000     C
    C   1.0     0.973334     0.216358     0.782169  Biso 1.000000     C
    C   1.0     0.973333     0.717721     0.283491  Biso 1.000000     C
    C   1.0     0.473333     0.216740     0.282503  Biso 1.000000     C
    C   1.0     0.473281     0.716792     0.782594  Biso 1.000000     C
    C   1.0     0.026727     0.782356     0.783426  Biso 1.000000     C
    C   1.0     0.026708     0.283464     0.282291  Biso 1.000000     C
    C   1.0     0.526699     0.782274     0.283473  Biso 1.000000     C
    C   1.0     0.526718     0.282865     0.782898  Biso 1.000000     C
    C   1.0     0.973365     0.782266     0.216505  Biso 1.000000     C
    C   1.0     0.973361     0.282516     0.716776  Biso 1.000000     C
    C   1.0     0.473369     0.781889     0.716145  Biso 1.000000     C
    C   1.0     0.473369     0.283275     0.217493  Biso 1.000000     C
    C   1.0     0.026630     0.216134     0.781954  Biso 1.000000     C
    C   1.0     0.026629     0.717708     0.283496  Biso 1.000000     C
    C   1.0     0.526628     0.216728     0.282509  Biso 1.000000     C
    C   1.0     0.526576     0.716558     0.782427  Biso 1.000000     C
    C   1.0     0.973432     0.782393     0.783462  Biso 1.000000     C
    C   1.0     0.973411     0.283489     0.282308  Biso 1.000000     C
    C   1.0     0.473403     0.782295     0.283495  Biso 1.000000     C
    C   1.0     0.473422     0.282830     0.782987  Biso 1.000000     C
    C   1.0     0.026662     0.782253     0.216510  Biso 1.000000     C
    C   1.0     0.026656     0.282230     0.716497  Biso 1.000000     C
    C   1.0     0.526665     0.781724     0.716046  Biso 1.000000     C
    C   1.0     0.526664     0.283263     0.217501  Biso 1.000000     C
    C   1.0     0.973292     0.216681     0.217544  Biso 1.000000     C
    C   1.0     0.973275     0.717722     0.716559  Biso 1.000000     C
    C   1.0     0.473291     0.217139     0.717094  Biso 1.000000     C
    C   1.0     0.473284     0.717707     0.216516  Biso 1.000000     C
    C   1.0     0.215943     0.218252     0.973308  Biso 1.000000     C
    C   1.0     0.217625     0.716564     0.473309  Biso 1.000000     C
    C   1.0     0.716521     0.217689     0.473311  Biso 1.000000     C
    C   1.0     0.716940     0.717078     0.973369  Biso 1.000000     C
    C   1.0     0.782821     0.217098     0.026651  Biso 1.000000     C
    C   1.0     0.782803     0.717022     0.526579  Biso 1.000000     C
    C   1.0     0.282819     0.217013     0.526644  Biso 1.000000     C
    C   1.0     0.282701     0.717194     0.026607  Biso 1.000000     C
    C   1.0     0.782787     0.782859     0.973398  Biso 1.000000     C
    C   1.0     0.783493     0.282317     0.473389  Biso 1.000000     C
    C   1.0     0.282287     0.783505     0.473391  Biso 1.000000     C
    C   1.0     0.282275     0.283540     0.973386  Biso 1.000000     C
    C   1.0     0.217822     0.783837     0.026759  Biso 1.000000     C
    C   1.0     0.217138     0.282855     0.526636  Biso 1.000000     C
    C   1.0     0.717079     0.782832     0.526559  Biso 1.000000     C
    C   1.0     0.716374     0.282169     0.026638  Biso 1.000000     C
    C   1.0     0.217537     0.026625     0.783277  Biso 1.000000     C
    C   1.0     0.217105     0.526619     0.282882  Biso 1.000000     C
    C   1.0     0.717174     0.026625     0.282941  Biso 1.000000     C
    C   1.0     0.717687     0.526654     0.783327  Biso 1.000000     C
    C   1.0     0.217107     0.973280     0.217121  Biso 1.000000     C
    C   1.0     0.216489     0.473312     0.717712  Biso 1.000000     C
    C   1.0     0.717697     0.973220     0.716519  Biso 1.000000     C
    C   1.0     0.717109     0.473285     0.217113  Biso 1.000000     C
    C   1.0     0.782894     0.026673     0.217128  Biso 1.000000     C
    C   1.0     0.782301     0.526670     0.716429  Biso 1.000000     C
    C   1.0     0.283960     0.026677     0.718168  Biso 1.000000     C
    C   1.0     0.282923     0.526664     0.217169  Biso 1.000000     C
    C   1.0     0.782322     0.973325     0.783463  Biso 1.000000     C
    C   1.0     0.782836     0.473393     0.282983  Biso 1.000000     C
    C   1.0     0.282997     0.973390     0.282828  Biso 1.000000     C
    C   1.0     0.282601     0.473402     0.783192  Biso 1.000000     C
    C   1.0     0.249993     0.110997     0.249962  Biso 1.000000     C
    C   1.0     0.250012     0.053652     0.249953  Biso 1.000000     C
    C   1.0     0.249081     0.611016     0.750871  Biso 1.000000     C
    C   1.0     0.249183     0.553666     0.750783  Biso 1.000000     C
    C   1.0     0.750031     0.888987     0.250006  Biso 1.000000     C
    C   1.0     0.750052     0.946332     0.250031  Biso 1.000000     C
    C   1.0     0.750005     0.389002     0.749942  Biso 1.000000     C
    C   1.0     0.749992     0.446352     0.749897  Biso 1.000000     C
    C   1.0     0.250021     0.388992     0.250009  Biso 1.000000     C
    C   1.0     0.250036     0.446337     0.250026  Biso 1.000000     C
    C   1.0     0.749978     0.110963     0.749964  Biso 1.000000     C
    C   1.0     0.749979     0.053604     0.749966  Biso 1.000000     C
    C   1.0     0.749956     0.610988     0.249990  Biso 1.000000     C
    C   1.0     0.749939     0.553643     0.250017  Biso 1.000000     C
    C   1.0     0.250140     0.888997     0.750076  Biso 1.000000     C
    C   1.0     0.250397     0.946339     0.750340  Biso 1.000000     C
    C   1.0     0.249797     0.250154     0.110992  Biso 1.000000     C
    C   1.0     0.249474     0.250487     0.053652  Biso 1.000000     C
    C   1.0     0.249961     0.749977     0.610984  Biso 1.000000     C
    C   1.0     0.249943     0.749999     0.553645  Biso 1.000000     C
    C   1.0     0.250315     0.750885     0.889058  Biso 1.000000     C
    C   1.0     0.250369     0.750825     0.946389  Biso 1.000000     C
    C   1.0     0.249999     0.249978     0.389006  Biso 1.000000     C
    C   1.0     0.249991     0.249957     0.446344  Biso 1.000000     C
    C   1.0     0.749953     0.749958     0.111012  Biso 1.000000     C
    C   1.0     0.749913     0.749954     0.053681  Biso 1.000000     C
    C   1.0     0.749986     0.249977     0.610988  Biso 1.000000     C
    C   1.0     0.749987     0.249980     0.553647  Biso 1.000000     C
    C   1.0     0.749842     0.249864     0.889001  Biso 1.000000     C
    C   1.0     0.749656     0.249681     0.946339  Biso 1.000000     C
    C   1.0     0.749984     0.749968     0.388966  Biso 1.000000     C
    C   1.0     0.749962     0.749943     0.446289  Biso 1.000000     C
    C   1.0     0.110996     0.249997     0.249951  Biso 1.000000     C
    C   1.0     0.053653     0.250039     0.249913  Biso 1.000000     C
    C   1.0     0.611000     0.249954     0.749980  Biso 1.000000     C
    C   1.0     0.553657     0.249947     0.750001  Biso 1.000000     C
    C   1.0     0.889003     0.249855     0.749879  Biso 1.000000     C
    C   1.0     0.946344     0.249573     0.749605  Biso 1.000000     C
    C   1.0     0.389005     0.250012     0.249990  Biso 1.000000     C
    C   1.0     0.446346     0.250012     0.249995  Biso 1.000000     C
    C   1.0     0.110989     0.749984     0.749947  Biso 1.000000     C
    C   1.0     0.053649     0.750014     0.749949  Biso 1.000000     C
    C   1.0     0.610987     0.749967     0.249974  Biso 1.000000     C
    C   1.0     0.553644     0.749971     0.249975  Biso 1.000000     C
    C   1.0     0.889003     0.750004     0.249994  Biso 1.000000     C
    C   1.0     0.946345     0.750000     0.249996  Biso 1.000000     C
    C   1.0     0.388976     0.749725     0.749655  Biso 1.000000     C
    C   1.0     0.446319     0.749458     0.749456  Biso 1.000000     C
    C   1.0     0.110991     0.248958     0.748993  Biso 1.000000     C
    C   1.0     0.053647     0.249061     0.749105  Biso 1.000000     C
    C   1.0     0.610993     0.249984     0.250007  Biso 1.000000     C
    C   1.0     0.553651     0.249990     0.250007  Biso 1.000000     C
    C   1.0     0.889015     0.750029     0.750117  Biso 1.000000     C
    C   1.0     0.946353     0.750058     0.750043  Biso 1.000000     C
    C   1.0     0.889004     0.250053     0.249983  Biso 1.000000     C
    C   1.0     0.946346     0.250086     0.249943  Biso 1.000000     C
    C   1.0     0.388996     0.750011     0.250018  Biso 1.000000     C
    C   1.0     0.446339     0.750009     0.250014  Biso 1.000000     C
    C   1.0     0.110990     0.749972     0.250006  Biso 1.000000     C
    C   1.0     0.053649     0.749974     0.250005  Biso 1.000000     C
    C   1.0     0.610971     0.749068     0.749273  Biso 1.000000     C
    C   1.0     0.553625     0.749063     0.749194  Biso 1.000000     C
    C   1.0     0.389008     0.250019     0.750037  Biso 1.000000     C
    C   1.0     0.446351     0.250000     0.750048  Biso 1.000000     C
    C   1.0     0.248969     0.251056     0.889000  Biso 1.000000     C
    C   1.0     0.249014     0.251006     0.946342  Biso 1.000000     C
    C   1.0     0.249994     0.750019     0.389005  Biso 1.000000     C
    C   1.0     0.249968     0.750037     0.446345  Biso 1.000000     C
    C   1.0     0.749833     0.249863     0.110989  Biso 1.000000     C
    C   1.0     0.749642     0.249677     0.053650  Biso 1.000000     C
    C   1.0     0.749965     0.749962     0.610891  Biso 1.000000     C
    C   1.0     0.749942     0.749931     0.553562  Biso 1.000000     C
    C   1.0     0.249999     0.249954     0.610983  Biso 1.000000     C
    C   1.0     0.249981     0.249934     0.553645  Biso 1.000000     C
    C   1.0     0.749828     0.750010     0.889053  Biso 1.000000     C
    C   1.0     0.749844     0.749979     0.946386  Biso 1.000000     C
    C   1.0     0.750018     0.250007     0.389003  Biso 1.000000     C
    C   1.0     0.750013     0.250009     0.446344  Biso 1.000000     C
    C   1.0     0.250065     0.750134     0.111010  Biso 1.000000     C
    C   1.0     0.250202     0.750387     0.053681  Biso 1.000000     C
    C   1.0     0.250988     0.110995     0.750985  Biso 1.000000     C
    C   1.0     0.250864     0.053652     0.750850  Biso 1.000000     C
    C   1.0     0.249990     0.610990     0.250009  Biso 1.000000     C
    C   1.0     0.250003     0.553645     0.250020  Biso 1.000000     C
    C   1.0     0.250040     0.888986     0.250014  Biso 1.000000     C
    C   1.0     0.250059     0.946331     0.249987  Biso 1.000000     C
    C   1.0     0.249901     0.389000     0.750105  Biso 1.000000     C
    C   1.0     0.249672     0.446350     0.750335  Biso 1.000000     C
    C   1.0     0.750002     0.110997     0.250014  Biso 1.000000     C
    C   1.0     0.750020     0.053653     0.250028  Biso 1.000000     C
    C   1.0     0.750062     0.611019     0.749961  Biso 1.000000     C
    C   1.0     0.750011     0.553670     0.749888  Biso 1.000000     C
    C   1.0     0.750016     0.888904     0.750012  Biso 1.000000     C
    C   1.0     0.750019     0.946258     0.749999  Biso 1.000000     C
    C   1.0     0.750008     0.388990     0.250038  Biso 1.000000     C
    C   1.0     0.749989     0.446335     0.250050  Biso 1.000000     C
    O   1.0     0.220137     0.133089     0.218065  Biso 1.000000     O
    O   1.0     0.218046     0.633095     0.720122  Biso 1.000000     O
    O   1.0     0.720156     0.133062     0.718040  Biso 1.000000     O
    O   1.0     0.718047     0.633080     0.220149  Biso 1.000000     O
    O   1.0     0.781916     0.866885     0.220166  Biso 1.000000     O
    O   1.0     0.779828     0.366884     0.718050  Biso 1.000000     O
    O   1.0     0.281966     0.866890     0.720174  Biso 1.000000     O
    O   1.0     0.279844     0.366888     0.218108  Biso 1.000000     O
    O   1.0     0.779805     0.133093     0.781904  Biso 1.000000     O
    O   1.0     0.781888     0.633116     0.279828  Biso 1.000000     O
    O   1.0     0.279835     0.133124     0.281889  Biso 1.000000     O
    O   1.0     0.280064     0.633161     0.781691  Biso 1.000000     O
    O   1.0     0.218130     0.866886     0.779794  Biso 1.000000     O
    O   1.0     0.220181     0.366879     0.281908  Biso 1.000000     O
    O   1.0     0.718118     0.866872     0.279830  Biso 1.000000     O
    O   1.0     0.720205     0.366895     0.781884  Biso 1.000000     O
    O   1.0     0.217999     0.220184     0.133094  Biso 1.000000     O
    O   1.0     0.220143     0.718033     0.633085  Biso 1.000000     O
    O   1.0     0.718044     0.220154     0.633086  Biso 1.000000     O
    O   1.0     0.720115     0.718040     0.133119  Biso 1.000000     O
    O   1.0     0.219920     0.782229     0.866939  Biso 1.000000     O
    O   1.0     0.218111     0.279824     0.366896  Biso 1.000000     O
    O   1.0     0.720168     0.781886     0.366862  Biso 1.000000     O
    O   1.0     0.718038     0.279792     0.866881  Biso 1.000000     O
    O   1.0     0.779825     0.781882     0.133115  Biso 1.000000     O
    O   1.0     0.781936     0.279805     0.633111  Biso 1.000000     O
    O   1.0     0.279809     0.781913     0.633101  Biso 1.000000     O
    O   1.0     0.281863     0.279863     0.133108  Biso 1.000000     O
    O   1.0     0.781833     0.220131     0.866901  Biso 1.000000     O
    O   1.0     0.779827     0.718082     0.366864  Biso 1.000000     O
    O   1.0     0.281901     0.220157     0.366897  Biso 1.000000     O
    O   1.0     0.280649     0.719552     0.866910  Biso 1.000000     O
    O   1.0     0.133085     0.218055     0.220152  Biso 1.000000     O
    O   1.0     0.133068     0.720150     0.718028  Biso 1.000000     O
    O   1.0     0.633087     0.218049     0.720138  Biso 1.000000     O
    O   1.0     0.633077     0.720147     0.218052  Biso 1.000000     O
    O   1.0     0.866878     0.218053     0.779821  Biso 1.000000     O
    O   1.0     0.866889     0.720191     0.281921  Biso 1.000000     O
    O   1.0     0.366887     0.218111     0.279831  Biso 1.000000     O
    O   1.0     0.366832     0.719835     0.781493  Biso 1.000000     O
    O   1.0     0.133127     0.779802     0.781883  Biso 1.000000     O
    O   1.0     0.133127     0.281915     0.279802  Biso 1.000000     O
    O   1.0     0.633118     0.779796     0.281910  Biso 1.000000     O
    O   1.0     0.633133     0.281882     0.779819  Biso 1.000000     O
    O   1.0     0.866896     0.779816     0.218070  Biso 1.000000     O
    O   1.0     0.866907     0.281863     0.720150  Biso 1.000000     O
    O   1.0     0.366892     0.779822     0.717993  Biso 1.000000     O
    O   1.0     0.366901     0.281932     0.220173  Biso 1.000000     O
    O   1.0     0.133100     0.218038     0.779840  Biso 1.000000     O
    O   1.0     0.133100     0.720159     0.281928  Biso 1.000000     O
    O   1.0     0.633097     0.218059     0.279820  Biso 1.000000     O
    O   1.0     0.633068     0.717941     0.779913  Biso 1.000000     O
    O   1.0     0.866934     0.780270     0.781638  Biso 1.000000     O
    O   1.0     0.866914     0.281954     0.279827  Biso 1.000000     O
    O   1.0     0.366908     0.779826     0.281947  Biso 1.000000     O
    O   1.0     0.366912     0.279859     0.781937  Biso 1.000000     O
    O   1.0     0.133104     0.779785     0.218079  Biso 1.000000     O
    O   1.0     0.133105     0.279826     0.718083  Biso 1.000000     O
    O   1.0     0.633112     0.780254     0.718722  Biso 1.000000     O
    O   1.0     0.633110     0.281886     0.220168  Biso 1.000000     O
    O   1.0     0.866872     0.218101     0.220168  Biso 1.000000     O
    O   1.0     0.866861     0.719736     0.718655  Biso 1.000000     O
    O   1.0     0.366884     0.220178     0.718107  Biso 1.000000     O
    O   1.0     0.366865     0.720186     0.218077  Biso 1.000000     O
    O   1.0     0.218050     0.220161     0.866879  Biso 1.000000     O
    O   1.0     0.220169     0.718064     0.366884  Biso 1.000000     O
    O   1.0     0.718067     0.220178     0.366882  Biso 1.000000     O
    O   1.0     0.717996     0.720070     0.866900  Biso 1.000000     O
    O   1.0     0.781825     0.220126     0.133096  Biso 1.000000     O
    O   1.0     0.781716     0.719995     0.633010  Biso 1.000000     O
    O   1.0     0.279836     0.218067     0.633104  Biso 1.000000     O
    O   1.0     0.279811     0.718127     0.133085  Biso 1.000000     O
    O   1.0     0.781643     0.779962     0.866987  Biso 1.000000     O
    O   1.0     0.781961     0.279827     0.366905  Biso 1.000000     O
    O   1.0     0.279839     0.781940     0.366908  Biso 1.000000     O
    O   1.0     0.279884     0.281939     0.866900  Biso 1.000000     O
    O   1.0     0.220178     0.781953     0.133149  Biso 1.000000     O
    O   1.0     0.220173     0.281861     0.633083  Biso 1.000000     O
    O   1.0     0.718230     0.779954     0.632994  Biso 1.000000     O
    O   1.0     0.718022     0.279778     0.133100  Biso 1.000000     O
    O   1.0     0.220134     0.133096     0.781891  Biso 1.000000     O
    O   1.0     0.218089     0.633091     0.279833  Biso 1.000000     O
    O   1.0     0.720161     0.133101     0.281899  Biso 1.000000     O
    O   1.0     0.720215     0.633096     0.781847  Biso 1.000000     O
    O   1.0     0.218107     0.866861     0.220176  Biso 1.000000     O
    O   1.0     0.218064     0.366863     0.720172  Biso 1.000000     O
    O   1.0     0.720049     0.866772     0.718197  Biso 1.000000     O
    O   1.0     0.720169     0.366865     0.218105  Biso 1.000000     O
    O   1.0     0.779828     0.133112     0.218103  Biso 1.000000     O
    O   1.0     0.779960     0.633163     0.718122  Biso 1.000000     O
    O   1.0     0.281918     0.133114     0.720147  Biso 1.000000     O
    O   1.0     0.281880     0.633107     0.220160  Biso 1.000000     O
    O   1.0     0.779974     0.866812     0.781821  Biso 1.000000     O
    O   1.0     0.779861     0.366895     0.281935  Biso 1.000000     O
    O   1.0     0.281947     0.866892     0.279856  Biso 1.000000     O
    O   1.0     0.281908     0.366914     0.779846  Biso 1.000000     O
    O   1.0     0.250004     0.250007     0.250012  Biso 1.000000     O
    O   1.0     0.750003     0.750001     0.250004  Biso 1.000000     O
    O   1.0     0.750005     0.249993     0.750008  Biso 1.000000     O
    O   1.0     0.249992     0.750007     0.749978  Biso 1.000000     O
    O   1.0     0.249993     0.249986     0.749980  Biso 1.000000     O
    O   1.0     0.749989     0.749992     0.750003  Biso 1.000000     O
    O   1.0     0.749994     0.249983     0.249982  Biso 1.000000     O
    O   1.0     0.249998     0.749971     0.249992  Biso 1.000000     O
   Zn   1.0     0.206509     0.206508     0.206512  Biso 1.000000    Zn
   Zn   1.0     0.206483     0.706518     0.706504  Biso 1.000000    Zn
   Zn   1.0     0.706508     0.206500     0.706504  Biso 1.000000    Zn
   Zn   1.0     0.706497     0.706503     0.206523  Biso 1.000000    Zn
   Zn   1.0     0.793480     0.793467     0.206525  Biso 1.000000    Zn
   Zn   1.0     0.793487     0.293468     0.706529  Biso 1.000000    Zn
   Zn   1.0     0.293466     0.793478     0.706513  Biso 1.000000    Zn
   Zn   1.0     0.293484     0.293470     0.206526  Biso 1.000000    Zn
   Zn   1.0     0.793469     0.206531     0.793490  Biso 1.000000    Zn
   Zn   1.0     0.793474     0.706533     0.293471  Biso 1.000000    Zn
   Zn   1.0     0.293475     0.206542     0.293484  Biso 1.000000    Zn
   Zn   1.0     0.293416     0.706595     0.793562  Biso 1.000000    Zn
   Zn   1.0     0.206533     0.793474     0.793464  Biso 1.000000    Zn
   Zn   1.0     0.206541     0.293461     0.293483  Biso 1.000000    Zn
   Zn   1.0     0.706535     0.793458     0.293467  Biso 1.000000    Zn
   Zn   1.0     0.706548     0.293471     0.793469  Biso 1.000000    Zn
   Zn   1.0     0.206522     0.206510     0.793462  Biso 1.000000    Zn
   Zn   1.0     0.206515     0.706507     0.293468  Biso 1.000000    Zn
   Zn   1.0     0.706516     0.206515     0.293465  Biso 1.000000    Zn
   Zn   1.0     0.706515     0.706504     0.793472  Biso 1.000000    Zn
   Zn   1.0     0.793490     0.793392     0.793571  Biso 1.000000    Zn
   Zn   1.0     0.793493     0.293474     0.293485  Biso 1.000000    Zn
   Zn   1.0     0.293492     0.793468     0.293489  Biso 1.000000    Zn
   Zn   1.0     0.293489     0.293487     0.793477  Biso 1.000000    Zn
   Zn   1.0     0.206516     0.793443     0.206537  Biso 1.000000    Zn
   Zn   1.0     0.206527     0.293438     0.706488  Biso 1.000000    Zn
   Zn   1.0     0.706519     0.793353     0.706423  Biso 1.000000    Zn
   Zn   1.0     0.706525     0.293452     0.206512  Biso 1.000000    Zn
   Zn   1.0     0.793458     0.206530     0.206511  Biso 1.000000    Zn
   Zn   1.0     0.793450     0.706588     0.706442  Biso 1.000000    Zn
   Zn   1.0     0.293470     0.206528     0.706520  Biso 1.000000    Zn
   Zn   1.0     0.293449     0.706521     0.206503  Biso 1.000000    Zn
