#======================================================================

# CRYSTAL DATA

#----------------------------------------------------------------------

data_VESTA_phase_1


_pd_phase_name                         MOF
_cell_length_a                         26.09500
_cell_length_b                         26.09500
_cell_length_c                         26.09900
_cell_angle_alpha                      89.98700
_cell_angle_beta                       90.01300
_cell_angle_gamma                      89.97300
_symmetry_space_group_name_H-M         "P 1"
_symmetry_Int_Tables_number            1

loop_
_symmetry_equiv_pos_as_xyz
   "x, y, z"

loop_
   _atom_site_label
   _atom_site_occupancy
   _atom_site_fract_x
   _atom_site_fract_y
   _atom_site_fract_z
   _atom_site_adp_type
   _atom_site_B_iso_or_equiv
   _atom_site_type_symbol
    H   1.0     0.691800     0.548124     0.191803  Biso 1.000000     H
    H   1.0     0.691805     0.048127     0.691793  Biso 1.000000     H
    H   1.0     0.308170     0.451895     0.191813  Biso 1.000000     H
    H   1.0     0.308164     0.951892     0.691803  Biso 1.000000     H
    H   1.0     0.808166     0.451895     0.691804  Biso 1.000000     H
    H   1.0     0.308188     0.548046     0.808178  Biso 1.000000     H
    H   1.0     0.308191     0.048049     0.308187  Biso 1.000000     H
    H   1.0     0.808188     0.048049     0.808179  Biso 1.000000     H
    H   1.0     0.691811     0.451922     0.808163  Biso 1.000000     H
    H   1.0     0.691805     0.951919     0.308171  Biso 1.000000     H
    H   1.0     0.191814     0.691822     0.548071  Biso 1.000000     H
    H   1.0     0.191818     0.191824     0.048079  Biso 1.000000     H
    H   1.0     0.691811     0.691821     0.048080  Biso 1.000000     H
    H   1.0     0.191793     0.308203     0.451887  Biso 1.000000     H
    H   1.0     0.191788     0.808199     0.951879  Biso 1.000000     H
    H   1.0     0.691785     0.808199     0.451887  Biso 1.000000     H
    H   1.0     0.808167     0.308178     0.548070  Biso 1.000000     H
    H   1.0     0.808162     0.808176     0.048079  Biso 1.000000     H
    H   1.0     0.808194     0.691792     0.451939  Biso 1.000000     H
    H   1.0     0.808198     0.191795     0.951930  Biso 1.000000     H
    H   1.0     0.548097     0.191825     0.691803  Biso 1.000000     H
    H   1.0     0.048100     0.191824     0.191812  Biso 1.000000     H
    H   1.0     0.048097     0.691821     0.691804  Biso 1.000000     H
    H   1.0     0.451947     0.191806     0.308186  Biso 1.000000     H
    H   1.0     0.451943     0.691800     0.808176  Biso 1.000000     H
    H   1.0     0.951943     0.191805     0.808178  Biso 1.000000     H
    H   1.0     0.548066     0.808176     0.308171  Biso 1.000000     H
    H   1.0     0.048069     0.808177     0.808162  Biso 1.000000     H
    H   1.0     0.451863     0.808184     0.691792  Biso 1.000000     H
    H   1.0     0.951860     0.808185     0.191801  Biso 1.000000     H
    H   1.0     0.548119     0.691806     0.808180  Biso 1.000000     H
    H   1.0     0.048122     0.691807     0.308190  Biso 1.000000     H
    H   1.0     0.451893     0.308172     0.808171  Biso 1.000000     H
    H   1.0     0.951890     0.308172     0.308179  Biso 1.000000     H
    H   1.0     0.951885     0.808169     0.808170  Biso 1.000000     H
    H   1.0     0.548043     0.308192     0.191804  Biso 1.000000     H
    H   1.0     0.548039     0.808188     0.691795  Biso 1.000000     H
    H   1.0     0.048047     0.308192     0.691796  Biso 1.000000     H
    H   1.0     0.451916     0.691813     0.191821  Biso 1.000000     H
    H   1.0     0.951913     0.691813     0.691811  Biso 1.000000     H
    H   1.0     0.691820     0.191819     0.451912  Biso 1.000000     H
    H   1.0     0.691818     0.691815     0.951903  Biso 1.000000     H
    H   1.0     0.308200     0.191795     0.548095  Biso 1.000000     H
    H   1.0     0.308197     0.691793     0.048104  Biso 1.000000     H
    H   1.0     0.808193     0.691792     0.548095  Biso 1.000000     H
    H   1.0     0.308171     0.808169     0.451912  Biso 1.000000     H
    H   1.0     0.308175     0.308173     0.951903  Biso 1.000000     H
    H   1.0     0.808169     0.808169     0.951903  Biso 1.000000     H
    H   1.0     0.691784     0.808199     0.548043  Biso 1.000000     H
    H   1.0     0.691788     0.308202     0.048052  Biso 1.000000     H
    H   1.0     0.191822     0.548099     0.308179  Biso 1.000000     H
    H   1.0     0.191825     0.048102     0.808170  Biso 1.000000     H
    H   1.0     0.691817     0.548099     0.808170  Biso 1.000000     H
    H   1.0     0.191803     0.451949     0.691795  Biso 1.000000     H
    H   1.0     0.191797     0.951945     0.191804  Biso 1.000000     H
    H   1.0     0.691795     0.951945     0.691795  Biso 1.000000     H
    H   1.0     0.808173     0.548073     0.691812  Biso 1.000000     H
    H   1.0     0.808177     0.048075     0.191820  Biso 1.000000     H
    H   1.0     0.808182     0.451870     0.308189  Biso 1.000000     H
    H   1.0     0.808178     0.951867     0.808181  Biso 1.000000     H
    H   1.0     0.308186     0.451870     0.808180  Biso 1.000000     H
    H   1.0     0.308180     0.951866     0.308189  Biso 1.000000     H
    H   1.0     0.691820     0.048102     0.308178  Biso 1.000000     H
    H   1.0     0.691798     0.451948     0.191805  Biso 1.000000     H
    H   1.0     0.308179     0.548072     0.191822  Biso 1.000000     H
    H   1.0     0.308181     0.048075     0.691812  Biso 1.000000     H
    H   1.0     0.808172     0.308173     0.451912  Biso 1.000000     H
    H   1.0     0.808197     0.191795     0.048104  Biso 1.000000     H
    H   1.0     0.191820     0.691815     0.451912  Biso 1.000000     H
    H   1.0     0.191823     0.191819     0.951903  Biso 1.000000     H
    H   1.0     0.191792     0.308202     0.548043  Biso 1.000000     H
    H   1.0     0.191788     0.808200     0.048052  Biso 1.000000     H
    H   1.0     0.451889     0.808169     0.308179  Biso 1.000000     H
    H   1.0     0.048043     0.808189     0.191805  Biso 1.000000     H
    H   1.0     0.451920     0.191817     0.691812  Biso 1.000000     H
    H   1.0     0.951917     0.191816     0.191820  Biso 1.000000     H
    H   1.0     0.548123     0.191808     0.308188  Biso 1.000000     H
    H   1.0     0.048126     0.191809     0.808180  Biso 1.000000     H
    H   1.0     0.451867     0.308189     0.191802  Biso 1.000000     H
    H   1.0     0.951864     0.308189     0.691793  Biso 1.000000     H
    H   1.0     0.548093     0.691820     0.191813  Biso 1.000000     H
    H   1.0     0.951939     0.691802     0.308186  Biso 1.000000     H
    H   1.0     0.548070     0.308181     0.808162  Biso 1.000000     H
    H   1.0     0.048073     0.308180     0.308171  Biso 1.000000     H
    H   1.0     0.308166     0.808174     0.548070  Biso 1.000000     H
    H   1.0     0.308170     0.308177     0.048079  Biso 1.000000     H
    H   1.0     0.691789     0.308202     0.951879  Biso 1.000000     H
    H   1.0     0.691815     0.191824     0.548070  Biso 1.000000     H
    H   1.0     0.308201     0.191795     0.451939  Biso 1.000000     H
    H   1.0     0.308198     0.691793     0.951930  Biso 1.000000     H
    H   1.0     0.808162     0.951892     0.191813  Biso 1.000000     H
    H   1.0     0.808183     0.548046     0.308188  Biso 1.000000     H
    H   1.0     0.191814     0.451922     0.308171  Biso 1.000000     H
    H   1.0     0.191809     0.951919     0.808162  Biso 1.000000     H
    H   1.0     0.191806     0.548125     0.691793  Biso 1.000000     H
    H   1.0     0.191808     0.048128     0.191802  Biso 1.000000     H
    C   1.0     0.717104     0.526662     0.217109  Biso 1.000000     C
    C   1.0     0.717109     0.026666     0.717099  Biso 1.000000     C
    C   1.0     0.282874     0.473346     0.217114  Biso 1.000000     C
    C   1.0     0.282867     0.973343     0.717103  Biso 1.000000     C
    C   1.0     0.782869     0.473347     0.717104  Biso 1.000000     C
    C   1.0     0.282884     0.526619     0.782873  Biso 1.000000     C
    C   1.0     0.282886     0.026622     0.282883  Biso 1.000000     C
    C   1.0     0.782883     0.026622     0.782875  Biso 1.000000     C
    C   1.0     0.717110     0.473361     0.782866  Biso 1.000000     C
    C   1.0     0.717104     0.973358     0.282873  Biso 1.000000     C
    C   1.0     0.217112     0.717120     0.526631  Biso 1.000000     C
    C   1.0     0.217117     0.217122     0.026639  Biso 1.000000     C
    C   1.0     0.717110     0.717119     0.026640  Biso 1.000000     C
    C   1.0     0.217104     0.282892     0.473337  Biso 1.000000     C
    C   1.0     0.217100     0.782889     0.973328  Biso 1.000000     C
    C   1.0     0.717095     0.782887     0.473337  Biso 1.000000     C
    C   1.0     0.782870     0.282879     0.526630  Biso 1.000000     C
    C   1.0     0.782865     0.782877     0.026639  Biso 1.000000     C
    C   1.0     0.782882     0.717102     0.473366  Biso 1.000000     C
    C   1.0     0.782887     0.217106     0.973357  Biso 1.000000     C
    C   1.0     0.526646     0.217122     0.717103  Biso 1.000000     C
    C   1.0     0.026649     0.217121     0.217112  Biso 1.000000     C
    C   1.0     0.026645     0.717119     0.717103  Biso 1.000000     C
    C   1.0     0.473374     0.217110     0.282882  Biso 1.000000     C
    C   1.0     0.473370     0.717106     0.782873  Biso 1.000000     C
    C   1.0     0.973370     0.217110     0.782874  Biso 1.000000     C
    C   1.0     0.526627     0.782877     0.282874  Biso 1.000000     C
    C   1.0     0.026630     0.782879     0.782864  Biso 1.000000     C
    C   1.0     0.473326     0.782880     0.717097  Biso 1.000000     C
    C   1.0     0.973322     0.782881     0.217106  Biso 1.000000     C
    C   1.0     0.526657     0.717108     0.782873  Biso 1.000000     C
    C   1.0     0.026659     0.717110     0.282885  Biso 1.000000     C
    C   1.0     0.473344     0.282875     0.782871  Biso 1.000000     C
    C   1.0     0.973341     0.282875     0.282879  Biso 1.000000     C
    C   1.0     0.973337     0.782870     0.782872  Biso 1.000000     C
    C   1.0     0.526616     0.282887     0.217108  Biso 1.000000     C
    C   1.0     0.526612     0.782881     0.717097  Biso 1.000000     C
    C   1.0     0.026620     0.282887     0.717100  Biso 1.000000     C
    C   1.0     0.473355     0.717111     0.217119  Biso 1.000000     C
    C   1.0     0.973352     0.717111     0.717110  Biso 1.000000     C
    C   1.0     0.717118     0.217118     0.473352  Biso 1.000000     C
    C   1.0     0.717115     0.717115     0.973343  Biso 1.000000     C
    C   1.0     0.282889     0.217106     0.526645  Biso 1.000000     C
    C   1.0     0.282886     0.717104     0.026654  Biso 1.000000     C
    C   1.0     0.782882     0.717103     0.526645  Biso 1.000000     C
    C   1.0     0.282872     0.782872     0.473352  Biso 1.000000     C
    C   1.0     0.282876     0.282875     0.973343  Biso 1.000000     C
    C   1.0     0.782870     0.782872     0.973343  Biso 1.000000     C
    C   1.0     0.717095     0.782888     0.526616  Biso 1.000000     C
    C   1.0     0.717100     0.282891     0.026625  Biso 1.000000     C
    C   1.0     0.217120     0.526648     0.282881  Biso 1.000000     C
    C   1.0     0.217122     0.026651     0.782870  Biso 1.000000     C
    C   1.0     0.717115     0.526648     0.782870  Biso 1.000000     C
    C   1.0     0.217108     0.473376     0.717098  Biso 1.000000     C
    C   1.0     0.217102     0.973372     0.217108  Biso 1.000000     C
    C   1.0     0.717100     0.973372     0.717099  Biso 1.000000     C
    C   1.0     0.782874     0.526633     0.717109  Biso 1.000000     C
    C   1.0     0.782877     0.026636     0.217117  Biso 1.000000     C
    C   1.0     0.782877     0.473332     0.282884  Biso 1.000000     C
    C   1.0     0.782874     0.973329     0.782875  Biso 1.000000     C
    C   1.0     0.282882     0.473332     0.782874  Biso 1.000000     C
    C   1.0     0.282876     0.973328     0.282884  Biso 1.000000     C
    C   1.0     0.717117     0.026651     0.282878  Biso 1.000000     C
    C   1.0     0.717103     0.473376     0.217109  Biso 1.000000     C
    C   1.0     0.282880     0.526633     0.217120  Biso 1.000000     C
    C   1.0     0.282881     0.026636     0.717109  Biso 1.000000     C
    C   1.0     0.782873     0.282875     0.473352  Biso 1.000000     C
    C   1.0     0.782886     0.217105     0.026654  Biso 1.000000     C
    C   1.0     0.217117     0.717115     0.473352  Biso 1.000000     C
    C   1.0     0.217121     0.217119     0.973343  Biso 1.000000     C
    C   1.0     0.217103     0.282891     0.526616  Biso 1.000000     C
    C   1.0     0.217099     0.782889     0.026626  Biso 1.000000     C
    C   1.0     0.473340     0.782870     0.282881  Biso 1.000000     C
    C   1.0     0.026616     0.782884     0.217108  Biso 1.000000     C
    C   1.0     0.473359     0.217116     0.717109  Biso 1.000000     C
    C   1.0     0.973356     0.217116     0.217117  Biso 1.000000     C
    C   1.0     0.526660     0.217113     0.282884  Biso 1.000000     C
    C   1.0     0.026664     0.217113     0.782875  Biso 1.000000     C
    C   1.0     0.473329     0.282884     0.217106  Biso 1.000000     C
    C   1.0     0.973326     0.282884     0.717098  Biso 1.000000     C
    C   1.0     0.526642     0.717118     0.217112  Biso 1.000000     C
    C   1.0     0.973366     0.717107     0.282882  Biso 1.000000     C
    C   1.0     0.526631     0.282881     0.782865  Biso 1.000000     C
    C   1.0     0.026634     0.282880     0.282874  Biso 1.000000     C
    C   1.0     0.282868     0.782876     0.526630  Biso 1.000000     C
    C   1.0     0.282873     0.282878     0.026639  Biso 1.000000     C
    C   1.0     0.717101     0.282891     0.973328  Biso 1.000000     C
    C   1.0     0.717114     0.217122     0.526630  Biso 1.000000     C
    C   1.0     0.282889     0.217106     0.473366  Biso 1.000000     C
    C   1.0     0.282887     0.717104     0.973357  Biso 1.000000     C
    C   1.0     0.782864     0.973343     0.217112  Biso 1.000000     C
    C   1.0     0.782878     0.526619     0.282885  Biso 1.000000     C
    C   1.0     0.217114     0.473361     0.282875  Biso 1.000000     C
    C   1.0     0.217109     0.973358     0.782865  Biso 1.000000     C
    C   1.0     0.217110     0.526663     0.717097  Biso 1.000000     C
    C   1.0     0.217112     0.026666     0.217107  Biso 1.000000     C
    C   1.0     0.749986     0.610972     0.249994  Biso 1.000000     C
    C   1.0     0.750003     0.553640     0.249984  Biso 1.000000     C
    C   1.0     0.749991     0.110975     0.749984  Biso 1.000000     C
    C   1.0     0.750004     0.053643     0.749978  Biso 1.000000     C
    C   1.0     0.249972     0.389025     0.249969  Biso 1.000000     C
    C   1.0     0.249989     0.446356     0.249989  Biso 1.000000     C
    C   1.0     0.249977     0.889022     0.749969  Biso 1.000000     C
    C   1.0     0.249980     0.946353     0.749975  Biso 1.000000     C
    C   1.0     0.249993     0.610972     0.749983  Biso 1.000000     C
    C   1.0     0.250003     0.553640     0.749979  Biso 1.000000     C
    C   1.0     0.249995     0.110975     0.249992  Biso 1.000000     C
    C   1.0     0.250011     0.053643     0.249983  Biso 1.000000     C
    C   1.0     0.749979     0.389025     0.749971  Biso 1.000000     C
    C   1.0     0.749982     0.446356     0.749977  Biso 1.000000     C
    C   1.0     0.749974     0.889022     0.249980  Biso 1.000000     C
    C   1.0     0.749983     0.946353     0.249991  Biso 1.000000     C
    C   1.0     0.249979     0.750009     0.610952  Biso 1.000000     C
    C   1.0     0.249996     0.749992     0.553627  Biso 1.000000     C
    C   1.0     0.249989     0.250006     0.110961  Biso 1.000000     C
    C   1.0     0.249990     0.250005     0.053636  Biso 1.000000     C
    C   1.0     0.249998     0.250004     0.389025  Biso 1.000000     C
    C   1.0     0.249996     0.249998     0.446352  Biso 1.000000     C
    C   1.0     0.249989     0.749997     0.889017  Biso 1.000000     C
    C   1.0     0.249991     0.749995     0.946343  Biso 1.000000     C
    C   1.0     0.749983     0.250010     0.610952  Biso 1.000000     C
    C   1.0     0.749989     0.250003     0.553627  Biso 1.000000     C
    C   1.0     0.749974     0.750012     0.110961  Biso 1.000000     C
    C   1.0     0.749987     0.749998     0.053636  Biso 1.000000     C
    C   1.0     0.749983     0.749993     0.389025  Biso 1.000000     C
    C   1.0     0.749997     0.750003     0.446352  Biso 1.000000     C
    C   1.0     0.749993     0.250002     0.889016  Biso 1.000000     C
    C   1.0     0.749993     0.249997     0.946343  Biso 1.000000     C
    C   1.0     0.610967     0.250014     0.749968  Biso 1.000000     C
    C   1.0     0.553636     0.250010     0.749976  Biso 1.000000     C
    C   1.0     0.110970     0.250010     0.249980  Biso 1.000000     C
    C   1.0     0.053639     0.250007     0.249987  Biso 1.000000     C
    C   1.0     0.389020     0.249994     0.249984  Biso 1.000000     C
    C   1.0     0.446352     0.250003     0.250001  Biso 1.000000     C
    C   1.0     0.889017     0.249994     0.749976  Biso 1.000000     C
    C   1.0     0.946349     0.249996     0.749985  Biso 1.000000     C
    C   1.0     0.610963     0.750024     0.249963  Biso 1.000000     C
    C   1.0     0.553632     0.749985     0.250006  Biso 1.000000     C
    C   1.0     0.110966     0.750031     0.749949  Biso 1.000000     C
    C   1.0     0.053635     0.749977     0.750005  Biso 1.000000     C
    C   1.0     0.389017     0.750006     0.749993  Biso 1.000000     C
    C   1.0     0.446349     0.749975     0.749968  Biso 1.000000     C
    C   1.0     0.889013     0.749989     0.249982  Biso 1.000000     C
    C   1.0     0.946345     0.749992     0.249992  Biso 1.000000     C
    C   1.0     0.610966     0.749991     0.749988  Biso 1.000000     C
    C   1.0     0.553634     0.750019     0.750009  Biso 1.000000     C
    C   1.0     0.110969     0.750001     0.250007  Biso 1.000000     C
    C   1.0     0.053637     0.750000     0.249999  Biso 1.000000     C
    C   1.0     0.389023     0.249984     0.750005  Biso 1.000000     C
    C   1.0     0.446354     0.249988     0.749997  Biso 1.000000     C
    C   1.0     0.889020     0.249982     0.250015  Biso 1.000000     C
    C   1.0     0.946351     0.249987     0.250006  Biso 1.000000     C
    C   1.0     0.610969     0.250008     0.250010  Biso 1.000000     C
    C   1.0     0.553637     0.249996     0.249992  Biso 1.000000     C
    C   1.0     0.110973     0.250002     0.749996  Biso 1.000000     C
    C   1.0     0.053641     0.250000     0.749988  Biso 1.000000     C
    C   1.0     0.389019     0.749968     0.250026  Biso 1.000000     C
    C   1.0     0.446350     0.750006     0.249985  Biso 1.000000     C
    C   1.0     0.889016     0.749961     0.750023  Biso 1.000000     C
    C   1.0     0.946347     0.750015     0.749967  Biso 1.000000     C
    C   1.0     0.750003     0.249989     0.389030  Biso 1.000000     C
    C   1.0     0.749997     0.249995     0.446355  Biso 1.000000     C
    C   1.0     0.750006     0.749979     0.889022  Biso 1.000000     C
    C   1.0     0.749993     0.749993     0.946346  Biso 1.000000     C
    C   1.0     0.249996     0.249995     0.610957  Biso 1.000000     C
    C   1.0     0.249999     0.250002     0.553630  Biso 1.000000     C
    C   1.0     0.249994     0.749994     0.110966  Biso 1.000000     C
    C   1.0     0.249991     0.749995     0.053639  Biso 1.000000     C
    C   1.0     0.250009     0.749978     0.389030  Biso 1.000000     C
    C   1.0     0.249993     0.749994     0.446355  Biso 1.000000     C
    C   1.0     0.250004     0.249991     0.889021  Biso 1.000000     C
    C   1.0     0.250004     0.249991     0.946346  Biso 1.000000     C
    C   1.0     0.749995     0.749998     0.610957  Biso 1.000000     C
    C   1.0     0.749981     0.749989     0.553630  Biso 1.000000     C
    C   1.0     0.749994     0.249995     0.110966  Biso 1.000000     C
    C   1.0     0.749993     0.249999     0.053639  Biso 1.000000     C
    C   1.0     0.250011     0.610969     0.250014  Biso 1.000000     C
    C   1.0     0.249997     0.553638     0.249998  Biso 1.000000     C
    C   1.0     0.250013     0.110972     0.750004  Biso 1.000000     C
    C   1.0     0.250010     0.053641     0.749998  Biso 1.000000     C
    C   1.0     0.249997     0.389023     0.749991  Biso 1.000000     C
    C   1.0     0.249986     0.446355     0.749995  Biso 1.000000     C
    C   1.0     0.249995     0.889019     0.249998  Biso 1.000000     C
    C   1.0     0.249977     0.946351     0.250008  Biso 1.000000     C
    C   1.0     0.750003     0.610969     0.750001  Biso 1.000000     C
    C   1.0     0.749999     0.553638     0.749994  Biso 1.000000     C
    C   1.0     0.750010     0.110972     0.250014  Biso 1.000000     C
    C   1.0     0.750002     0.053641     0.250003  Biso 1.000000     C
    C   1.0     0.749999     0.389023     0.249995  Biso 1.000000     C
    C   1.0     0.749981     0.446355     0.250006  Biso 1.000000     C
    C   1.0     0.749992     0.889020     0.749990  Biso 1.000000     C
    C   1.0     0.749979     0.946352     0.749995  Biso 1.000000     C
    O   1.0     0.780828     0.633095     0.280871  Biso 1.000000     O
    O   1.0     0.780832     0.133098     0.780861  Biso 1.000000     O
    O   1.0     0.219123     0.366897     0.280830  Biso 1.000000     O
    O   1.0     0.219145     0.866894     0.780847  Biso 1.000000     O
    O   1.0     0.719140     0.366897     0.780841  Biso 1.000000     O
    O   1.0     0.219154     0.633111     0.719085  Biso 1.000000     O
    O   1.0     0.219156     0.133113     0.219095  Biso 1.000000     O
    O   1.0     0.719153     0.133113     0.719085  Biso 1.000000     O
    O   1.0     0.780802     0.366892     0.719078  Biso 1.000000     O
    O   1.0     0.780811     0.866889     0.219101  Biso 1.000000     O
    O   1.0     0.280845     0.780851     0.633083  Biso 1.000000     O
    O   1.0     0.280843     0.280861     0.133091  Biso 1.000000     O
    O   1.0     0.780812     0.780883     0.133091  Biso 1.000000     O
    O   1.0     0.280853     0.219126     0.366899  Biso 1.000000     O
    O   1.0     0.280864     0.719139     0.866891  Biso 1.000000     O
    O   1.0     0.780863     0.719140     0.366900  Biso 1.000000     O
    O   1.0     0.719126     0.219158     0.633082  Biso 1.000000     O
    O   1.0     0.719128     0.719150     0.133091  Biso 1.000000     O
    O   1.0     0.719107     0.780861     0.366889  Biso 1.000000     O
    O   1.0     0.719113     0.280867     0.866881  Biso 1.000000     O
    O   1.0     0.633095     0.280858     0.780834  Biso 1.000000     O
    O   1.0     0.133098     0.280841     0.280859  Biso 1.000000     O
    O   1.0     0.133094     0.780865     0.780824  Biso 1.000000     O
    O   1.0     0.366882     0.280848     0.219101  Biso 1.000000     O
    O   1.0     0.366878     0.780852     0.719101  Biso 1.000000     O
    O   1.0     0.866879     0.280845     0.719090  Biso 1.000000     O
    O   1.0     0.633096     0.719184     0.219086  Biso 1.000000     O
    O   1.0     0.133099     0.719180     0.719082  Biso 1.000000     O
    O   1.0     0.366894     0.719151     0.780856  Biso 1.000000     O
    O   1.0     0.866890     0.719151     0.280862  Biso 1.000000     O
    O   1.0     0.633089     0.780838     0.719117  Biso 1.000000     O
    O   1.0     0.133092     0.780839     0.219127  Biso 1.000000     O
    O   1.0     0.366895     0.219148     0.719131  Biso 1.000000     O
    O   1.0     0.866892     0.219146     0.219141  Biso 1.000000     O
    O   1.0     0.866888     0.719139     0.719136  Biso 1.000000     O
    O   1.0     0.633108     0.219160     0.280900  Biso 1.000000     O
    O   1.0     0.633104     0.719170     0.780904  Biso 1.000000     O
    O   1.0     0.133111     0.219152     0.780884  Biso 1.000000     O
    O   1.0     0.366886     0.780809     0.280902  Biso 1.000000     O
    O   1.0     0.866883     0.780803     0.780898  Biso 1.000000     O
    O   1.0     0.780850     0.280850     0.366900  Biso 1.000000     O
    O   1.0     0.780853     0.780841     0.866892  Biso 1.000000     O
    O   1.0     0.219130     0.280862     0.633083  Biso 1.000000     O
    O   1.0     0.219124     0.780857     0.133091  Biso 1.000000     O
    O   1.0     0.719124     0.780860     0.633082  Biso 1.000000     O
    O   1.0     0.219169     0.719110     0.366900  Biso 1.000000     O
    O   1.0     0.219157     0.219129     0.866891  Biso 1.000000     O
    O   1.0     0.719168     0.719109     0.866891  Biso 1.000000     O
    O   1.0     0.780864     0.719123     0.633094  Biso 1.000000     O
    O   1.0     0.780866     0.219123     0.133102  Biso 1.000000     O
    O   1.0     0.280857     0.633096     0.219150  Biso 1.000000     O
    O   1.0     0.280855     0.133100     0.719136  Biso 1.000000     O
    O   1.0     0.780852     0.633097     0.719140  Biso 1.000000     O
    O   1.0     0.280841     0.366884     0.780885  Biso 1.000000     O
    O   1.0     0.280831     0.866880     0.280898  Biso 1.000000     O
    O   1.0     0.780831     0.866881     0.780887  Biso 1.000000     O
    O   1.0     0.719162     0.633102     0.780877  Biso 1.000000     O
    O   1.0     0.719176     0.133105     0.280896  Biso 1.000000     O
    O   1.0     0.719147     0.366899     0.219129  Biso 1.000000     O
    O   1.0     0.719149     0.866896     0.719115  Biso 1.000000     O
    O   1.0     0.219150     0.366899     0.719120  Biso 1.000000     O
    O   1.0     0.219150     0.866896     0.219123  Biso 1.000000     O
    O   1.0     0.780856     0.133100     0.219151  Biso 1.000000     O
    O   1.0     0.780851     0.366884     0.280880  Biso 1.000000     O
    O   1.0     0.219166     0.633102     0.280885  Biso 1.000000     O
    O   1.0     0.219189     0.133105     0.780896  Biso 1.000000     O
    O   1.0     0.719163     0.219121     0.366900  Biso 1.000000     O
    O   1.0     0.719127     0.280861     0.133092  Biso 1.000000     O
    O   1.0     0.280857     0.780839     0.366900  Biso 1.000000     O
    O   1.0     0.280863     0.280840     0.866891  Biso 1.000000     O
    O   1.0     0.280871     0.219125     0.633093  Biso 1.000000     O
    O   1.0     0.280867     0.719122     0.133102  Biso 1.000000     O
    O   1.0     0.366891     0.719139     0.219145  Biso 1.000000     O
    O   1.0     0.133107     0.719163     0.280906  Biso 1.000000     O
    O   1.0     0.366890     0.280806     0.780899  Biso 1.000000     O
    O   1.0     0.866887     0.280800     0.280913  Biso 1.000000     O
    O   1.0     0.633093     0.280847     0.219131  Biso 1.000000     O
    O   1.0     0.133096     0.280845     0.719121  Biso 1.000000     O
    O   1.0     0.366897     0.219155     0.280863  Biso 1.000000     O
    O   1.0     0.866894     0.219147     0.780847  Biso 1.000000     O
    O   1.0     0.633091     0.780858     0.280839  Biso 1.000000     O
    O   1.0     0.866875     0.780829     0.219085  Biso 1.000000     O
    O   1.0     0.633100     0.219187     0.719079  Biso 1.000000     O
    O   1.0     0.133103     0.219190     0.219084  Biso 1.000000     O
    O   1.0     0.219115     0.719164     0.633082  Biso 1.000000     O
    O   1.0     0.219123     0.219163     0.133091  Biso 1.000000     O
    O   1.0     0.780866     0.219142     0.866891  Biso 1.000000     O
    O   1.0     0.780830     0.280871     0.633082  Biso 1.000000     O
    O   1.0     0.219139     0.280890     0.366889  Biso 1.000000     O
    O   1.0     0.219104     0.780857     0.866880  Biso 1.000000     O
    O   1.0     0.719130     0.866894     0.280846  Biso 1.000000     O
    O   1.0     0.719153     0.633110     0.219091  Biso 1.000000     O
    O   1.0     0.280803     0.366892     0.219083  Biso 1.000000     O
    O   1.0     0.280791     0.866890     0.719066  Biso 1.000000     O
    O   1.0     0.280833     0.633095     0.780861  Biso 1.000000     O
    O   1.0     0.280845     0.133098     0.280861  Biso 1.000000     O
    O   1.0     0.749984     0.750000     0.249985  Biso 1.000000     O
    O   1.0     0.249991     0.250004     0.249985  Biso 1.000000     O
    O   1.0     0.249988     0.750000     0.749976  Biso 1.000000     O
    O   1.0     0.749988     0.250004     0.749976  Biso 1.000000     O
    O   1.0     0.749995     0.749991     0.749998  Biso 1.000000     O
    O   1.0     0.250002     0.249993     0.749998  Biso 1.000000     O
    O   1.0     0.749998     0.249993     0.250007  Biso 1.000000     O
    O   1.0     0.249998     0.749990     0.250007  Biso 1.000000     O
   Zn   1.0     0.793467     0.706518     0.293477  Biso 1.000000    Zn
   Zn   1.0     0.793471     0.206522     0.793468  Biso 1.000000    Zn
   Zn   1.0     0.206520     0.293475     0.293463  Biso 1.000000    Zn
   Zn   1.0     0.206516     0.793472     0.793453  Biso 1.000000    Zn
   Zn   1.0     0.206523     0.706539     0.706500  Biso 1.000000    Zn
   Zn   1.0     0.206527     0.206541     0.206510  Biso 1.000000    Zn
   Zn   1.0     0.793450     0.293468     0.706501  Biso 1.000000    Zn
   Zn   1.0     0.793446     0.793465     0.206510  Biso 1.000000    Zn
   Zn   1.0     0.293449     0.793466     0.706502  Biso 1.000000    Zn
   Zn   1.0     0.293474     0.206521     0.293476  Biso 1.000000    Zn
   Zn   1.0     0.706524     0.206541     0.706501  Biso 1.000000    Zn
   Zn   1.0     0.706513     0.793472     0.293462  Biso 1.000000    Zn
   Zn   1.0     0.706517     0.293475     0.793454  Biso 1.000000    Zn
   Zn   1.0     0.293453     0.293468     0.206509  Biso 1.000000    Zn
   Zn   1.0     0.706520     0.706539     0.206509  Biso 1.000000    Zn
   Zn   1.0     0.293471     0.706519     0.793468  Biso 1.000000    Zn
   Zn   1.0     0.706512     0.793473     0.706505  Biso 1.000000    Zn
   Zn   1.0     0.293473     0.206523     0.706519  Biso 1.000000    Zn
   Zn   1.0     0.706536     0.206529     0.293482  Biso 1.000000    Zn
   Zn   1.0     0.293462     0.793452     0.293481  Biso 1.000000    Zn
   Zn   1.0     0.793463     0.293456     0.293481  Biso 1.000000    Zn
   Zn   1.0     0.793459     0.793452     0.793473  Biso 1.000000    Zn
   Zn   1.0     0.206519     0.293476     0.706506  Biso 1.000000    Zn
   Zn   1.0     0.206515     0.793473     0.206515  Biso 1.000000    Zn
   Zn   1.0     0.206536     0.706526     0.293481  Biso 1.000000    Zn
   Zn   1.0     0.206540     0.206529     0.793473  Biso 1.000000    Zn
   Zn   1.0     0.793466     0.706519     0.706520  Biso 1.000000    Zn
   Zn   1.0     0.793470     0.206522     0.206528  Biso 1.000000    Zn
   Zn   1.0     0.293469     0.706519     0.206529  Biso 1.000000    Zn
   Zn   1.0     0.293466     0.293456     0.793473  Biso 1.000000    Zn
   Zn   1.0     0.706533     0.706526     0.793472  Biso 1.000000    Zn
   Zn   1.0     0.706516     0.293476     0.206515  Biso 1.000000    Zn
