#======================================================================

# CRYSTAL DATA

#----------------------------------------------------------------------

data_VESTA_phase_1


_pd_phase_name                         MOF
_cell_length_a                         17.03400
_cell_length_b                         14.38700
_cell_length_c                         14.38900
_cell_angle_alpha                      109.96200
_cell_angle_beta                       89.15300
_cell_angle_gamma                      90.84200
_symmetry_space_group_name_H-M         "P 1"
_symmetry_Int_Tables_number            1

loop_
_symmetry_equiv_pos_as_xyz
   "x, y, z"

loop_
   _atom_site_label
   _atom_site_occupancy
   _atom_site_fract_x
   _atom_site_fract_y
   _atom_site_fract_z
   _atom_site_adp_type
   _atom_site_B_iso_or_equiv
   _atom_site_type_symbol
    H   1.0     0.250974     0.570678     0.610080  Biso 1.000000     H
    H   1.0     0.750973     0.570676     0.610081  Biso 1.000000     H
    H   1.0     0.213162     0.278907     0.400641  Biso 1.000000     H
    H   1.0     0.713160     0.278907     0.400642  Biso 1.000000     H
    H   1.0     0.129222     0.351082     0.700583  Biso 1.000000     H
    H   1.0     0.629221     0.351080     0.700585  Biso 1.000000     H
    H   1.0     0.237410     0.740847     0.958423  Biso 1.000000     H
    H   1.0     0.737407     0.740846     0.958422  Biso 1.000000     H
    H   1.0     0.273937     0.647764     0.770375  Biso 1.000000     H
    H   1.0     0.773934     0.647764     0.770374  Biso 1.000000     H
    H   1.0     0.403084     0.409104     0.223859  Biso 1.000000     H
    H   1.0     0.903079     0.409104     0.223860  Biso 1.000000     H
    H   1.0     0.331511     0.313659     0.330259  Biso 1.000000     H
    H   1.0     0.831508     0.313657     0.330260  Biso 1.000000     H
    H   1.0     0.010988     0.032408     0.561700  Biso 1.000000     H
    H   1.0     0.510987     0.032407     0.561701  Biso 1.000000     H
    H   1.0     0.052316     0.219618     0.647784  Biso 1.000000     H
    H   1.0     0.552315     0.219618     0.647787  Biso 1.000000     H
    H   1.0     0.113850     0.924029     0.119819  Biso 1.000000     H
    H   1.0     0.613847     0.924030     0.119818  Biso 1.000000     H
    H   1.0     0.131335     0.980895     0.911789  Biso 1.000000     H
    H   1.0     0.631332     0.980894     0.911788  Biso 1.000000     H
    H   1.0     0.183951     0.961250     0.010283  Biso 1.000000     H
    H   1.0     0.683947     0.961249     0.010281  Biso 1.000000     H
    H   1.0     0.182216     0.867706     0.890819  Biso 1.000000     H
    H   1.0     0.682212     0.867704     0.890817  Biso 1.000000     H
    H   1.0     0.477260     0.795730     0.929369  Biso 1.000000     H
    H   1.0     0.977257     0.795730     0.929368  Biso 1.000000     H
    H   1.0     0.002340     0.871626     0.856110  Biso 1.000000     H
    H   1.0     0.502335     0.871626     0.856111  Biso 1.000000     H
    H   1.0     0.057858     0.763545     0.844002  Biso 1.000000     H
    H   1.0     0.557853     0.763544     0.844002  Biso 1.000000     H
    H   1.0     0.500952     0.389992     0.429385  Biso 1.000000     H
    H   1.0     0.000000     0.389994     0.429386  Biso 1.000000     H
    H   1.0     0.463172     0.599426     0.721150  Biso 1.000000     H
    H   1.0     0.963169     0.599426     0.721150  Biso 1.000000     H
    H   1.0     0.379228     0.299457     0.648964  Biso 1.000000     H
    H   1.0     0.879227     0.299457     0.648963  Biso 1.000000     H
    H   1.0     0.487400     0.041627     0.259192  Biso 1.000000     H
    H   1.0     0.987394     0.041630     0.259191  Biso 1.000000     H
    H   1.0     0.023932     0.229685     0.352292  Biso 1.000000     H
    H   1.0     0.523929     0.229682     0.352292  Biso 1.000000     H
    H   1.0     0.153071     0.776225     0.590907  Biso 1.000000     H
    H   1.0     0.653069     0.776224     0.590905  Biso 1.000000     H
    H   1.0     0.081497     0.669834     0.686361  Biso 1.000000     H
    H   1.0     0.581495     0.669833     0.686360  Biso 1.000000     H
    H   1.0     0.261015     0.438317     0.967626  Biso 1.000000     H
    H   1.0     0.761011     0.438316     0.967626  Biso 1.000000     H
    H   1.0     0.302336     0.352241     0.780423  Biso 1.000000     H
    H   1.0     0.802334     0.352241     0.780423  Biso 1.000000     H
    H   1.0     0.363865     0.880242     0.076027  Biso 1.000000     H
    H   1.0     0.863862     0.880242     0.076026  Biso 1.000000     H
    H   1.0     0.381335     0.088279     0.019178  Biso 1.000000     H
    H   1.0     0.881332     0.088277     0.019175  Biso 1.000000     H
    H   1.0     0.433949     0.989802     0.038813  Biso 1.000000     H
    H   1.0     0.933945     0.989801     0.038812  Biso 1.000000     H
    H   1.0     0.432200     0.109247     0.132355  Biso 1.000000     H
    H   1.0     0.932196     0.109247     0.132353  Biso 1.000000     H
    H   1.0     0.227240     0.070669     0.204293  Biso 1.000000     H
    H   1.0     0.727236     0.070669     0.204291  Biso 1.000000     H
    H   1.0     0.252315     0.143938     0.128411  Biso 1.000000     H
    H   1.0     0.752311     0.143936     0.128407  Biso 1.000000     H
    H   1.0     0.307816     0.156056     0.236484  Biso 1.000000     H
    H   1.0     0.807811     0.156058     0.236480  Biso 1.000000     H
    C   1.0     0.187534     0.469677     0.666474  Biso 1.000000     C
    C   1.0     0.687537     0.469674     0.666477  Biso 1.000000     C
    C   1.0     0.227466     0.495974     0.592857  Biso 1.000000     C
    C   1.0     0.727459     0.495975     0.592855  Biso 1.000000     C
    C   1.0     0.238375     0.427476     0.497410  Biso 1.000000     C
    C   1.0     0.738379     0.427473     0.497413  Biso 1.000000     C
    C   1.0     0.207349     0.331362     0.475674  Biso 1.000000     C
    C   1.0     0.707341     0.331364     0.475673  Biso 1.000000     C
    C   1.0     0.167126     0.302566     0.547620  Biso 1.000000     C
    C   1.0     0.667129     0.302563     0.547624  Biso 1.000000     C
    C   1.0     0.158255     0.372783     0.643057  Biso 1.000000     C
    C   1.0     0.658247     0.372785     0.643057  Biso 1.000000     C
    C   1.0     0.180032     0.541891     0.766488  Biso 1.000000     C
    C   1.0     0.680028     0.541892     0.766486  Biso 1.000000     C
    C   1.0     0.145753     0.631328     0.943795  Biso 1.000000     C
    C   1.0     0.645749     0.631332     0.943794  Biso 1.000000     C
    C   1.0     0.207039     0.675753     0.909837  Biso 1.000000     C
    C   1.0     0.707036     0.675752     0.909835  Biso 1.000000     C
    C   1.0     0.225824     0.626145     0.809456  Biso 1.000000     C
    C   1.0     0.725821     0.626145     0.809455  Biso 1.000000     C
    C   1.0     0.109879     0.664539     0.043214  Biso 1.000000     C
    C   1.0     0.609877     0.664535     0.043216  Biso 1.000000     C
    C   1.0     0.282130     0.454479     0.421811  Biso 1.000000     C
    C   1.0     0.782126     0.454477     0.421809  Biso 1.000000     C
    C   1.0     0.350487     0.543331     0.321992  Biso 1.000000     C
    C   1.0     0.850483     0.543331     0.321992  Biso 1.000000     C
    C   1.0     0.364538     0.442560     0.287092  Biso 1.000000     C
    C   1.0     0.864535     0.442561     0.287096  Biso 1.000000     C
    C   1.0     0.325411     0.392202     0.342949  Biso 1.000000     C
    C   1.0     0.825406     0.392199     0.342949  Biso 1.000000     C
    C   1.0     0.385644     0.617139     0.283584  Biso 1.000000     C
    C   1.0     0.885643     0.617139     0.283582  Biso 1.000000     C
    C   1.0     0.133910     0.202859     0.524705  Biso 1.000000     C
    C   1.0     0.633905     0.202860     0.524705  Biso 1.000000     C
    C   1.0     0.094196     0.025672     0.444670  Biso 1.000000     C
    C   1.0     0.594190     0.025673     0.444667  Biso 1.000000     C
    C   1.0     0.055619     0.071197     0.533768  Biso 1.000000     C
    C   1.0     0.555616     0.071198     0.533767  Biso 1.000000     C
    C   1.0     0.078205     0.170823     0.579222  Biso 1.000000     C
    C   1.0     0.578205     0.170822     0.579226  Biso 1.000000     C
    C   1.0     0.078582     0.926160     0.373428  Biso 1.000000     C
    C   1.0     0.578581     0.926158     0.373428  Biso 1.000000     C
    C   1.0     0.066396     0.886925     0.068882  Biso 1.000000     C
    C   1.0     0.566393     0.886924     0.068882  Biso 1.000000     C
    C   1.0     0.147730     0.925755     0.945255  Biso 1.000000     C
    C   1.0     0.647726     0.925754     0.945253  Biso 1.000000     C
    C   1.0     0.025426     0.825396     0.896333  Biso 1.000000     C
    C   1.0     0.525422     0.825396     0.896333  Biso 1.000000     C
    C   1.0     0.437513     0.333585     0.530371  Biso 1.000000     C
    C   1.0     0.937512     0.333584     0.530372  Biso 1.000000     C
    C   1.0     0.477469     0.407200     0.504093  Biso 1.000000     C
    C   1.0     0.977464     0.407205     0.504093  Biso 1.000000     C
    C   1.0     0.488360     0.502662     0.572577  Biso 1.000000     C
    C   1.0     0.988360     0.502662     0.572577  Biso 1.000000     C
    C   1.0     0.457373     0.524382     0.668702  Biso 1.000000     C
    C   1.0     0.957365     0.524384     0.668701  Biso 1.000000     C
    C   1.0     0.417123     0.452437     0.697480  Biso 1.000000     C
    C   1.0     0.917125     0.452437     0.697483  Biso 1.000000     C
    C   1.0     0.408275     0.356985     0.627274  Biso 1.000000     C
    C   1.0     0.908266     0.356987     0.627269  Biso 1.000000     C
    C   1.0     0.430025     0.233563     0.458160  Biso 1.000000     C
    C   1.0     0.930020     0.233564     0.458159  Biso 1.000000     C
    C   1.0     0.395738     0.056249     0.368704  Biso 1.000000     C
    C   1.0     0.895736     0.056248     0.368704  Biso 1.000000     C
    C   1.0     0.457025     0.090212     0.324287  Biso 1.000000     C
    C   1.0     0.957021     0.090213     0.324289  Biso 1.000000     C
    C   1.0     0.475811     0.190599     0.373900  Biso 1.000000     C
    C   1.0     0.975807     0.190602     0.373900  Biso 1.000000     C
    C   1.0     0.359857     0.956846     0.335478  Biso 1.000000     C
    C   1.0     0.859852     0.956844     0.335475  Biso 1.000000     C
    C   1.0     0.032132     0.578258     0.545576  Biso 1.000000     C
    C   1.0     0.532127     0.578258     0.545576  Biso 1.000000     C
    C   1.0     0.100472     0.678067     0.456704  Biso 1.000000     C
    C   1.0     0.600467     0.678071     0.456705  Biso 1.000000     C
    C   1.0     0.114530     0.712987     0.557460  Biso 1.000000     C
    C   1.0     0.614527     0.712986     0.557460  Biso 1.000000     C
    C   1.0     0.075404     0.657138     0.607827  Biso 1.000000     C
    C   1.0     0.575401     0.657136     0.607827  Biso 1.000000     C
    C   1.0     0.135644     0.716457     0.382895  Biso 1.000000     C
    C   1.0     0.635643     0.716452     0.382891  Biso 1.000000     C
    C   1.0     0.383929     0.475335     0.797190  Biso 1.000000     C
    C   1.0     0.883924     0.475336     0.797189  Biso 1.000000     C
    C   1.0     0.344212     0.555355     0.974364  Biso 1.000000     C
    C   1.0     0.844206     0.555357     0.974364  Biso 1.000000     C
    C   1.0     0.305642     0.466252     0.928834  Biso 1.000000     C
    C   1.0     0.805640     0.466251     0.928835  Biso 1.000000     C
    C   1.0     0.328228     0.420802     0.829214  Biso 1.000000     C
    C   1.0     0.828226     0.420802     0.829216  Biso 1.000000     C
    C   1.0     0.328610     0.626602     0.073899  Biso 1.000000     C
    C   1.0     0.828610     0.626600     0.073901  Biso 1.000000     C
    C   1.0     0.316395     0.931174     0.113120  Biso 1.000000     C
    C   1.0     0.816393     0.931174     0.113121  Biso 1.000000     C
    C   1.0     0.397727     0.054804     0.074308  Biso 1.000000     C
    C   1.0     0.897723     0.054804     0.074306  Biso 1.000000     C
    C   1.0     0.275403     0.103711     0.174636  Biso 1.000000     C
    C   1.0     0.775398     0.103711     0.174634  Biso 1.000000     C
    N   1.0     0.077943     0.882785     0.974643  Biso 1.000000     N
    N   1.0     0.577939     0.882786     0.974643  Biso 1.000000     N
    N   1.0     0.327937     0.025399     0.117258  Biso 1.000000     N
    N   1.0     0.827933     0.025399     0.117256  Biso 1.000000     N
    O   1.0     0.143393     0.736182     0.111311  Biso 1.000000     O
    O   1.0     0.643391     0.736180     0.111309  Biso 1.000000     O
    O   1.0     0.045264     0.626537     0.057833  Biso 1.000000     O
    O   1.0     0.545259     0.626540     0.057834  Biso 1.000000     O
    O   1.0     0.443756     0.590783     0.224302  Biso 1.000000     O
    O   1.0     0.943749     0.590784     0.224292  Biso 1.000000     O
    O   1.0     0.359796     0.706682     0.312780  Biso 1.000000     O
    O   1.0     0.859796     0.706682     0.312787  Biso 1.000000     O
    O   1.0     0.022831     0.875297     0.392066  Biso 1.000000     O
    O   1.0     0.522828     0.875297     0.392065  Biso 1.000000     O
    O   1.0     0.118400     0.895486     0.291490  Biso 1.000000     O
    O   1.0     0.618399     0.895486     0.291491  Biso 1.000000     O
    O   1.0     0.006580     0.852311     0.097219  Biso 1.000000     O
    O   1.0     0.506576     0.852311     0.097220  Biso 1.000000     O
    O   1.0     0.393392     0.888745     0.263855  Biso 1.000000     O
    O   1.0     0.893390     0.888744     0.263856  Biso 1.000000     O
    O   1.0     0.295234     0.942224     0.373460  Biso 1.000000     O
    O   1.0     0.795231     0.942225     0.373462  Biso 1.000000     O
    O   1.0     0.193739     0.775766     0.409236  Biso 1.000000     O
    O   1.0     0.693736     0.775765     0.409238  Biso 1.000000     O
    O   1.0     0.109803     0.687242     0.293363  Biso 1.000000     O
    O   1.0     0.609798     0.687242     0.293362  Biso 1.000000     O
    O   1.0     0.272847     0.607965     0.124747  Biso 1.000000     O
    O   1.0     0.772844     0.607966     0.124747  Biso 1.000000     O
    O   1.0     0.368430     0.708537     0.104564  Biso 1.000000     O
    O   1.0     0.868429     0.708537     0.104563  Biso 1.000000     O
    O   1.0     0.256580     0.902817     0.147714  Biso 1.000000     O
    O   1.0     0.756577     0.902818     0.147715  Biso 1.000000     O
    S   1.0     0.111236     0.527504     0.850863  Biso 1.000000     S
    S   1.0     0.611232     0.527506     0.850864  Biso 1.000000     S
    S   1.0     0.288814     0.575678     0.424296  Biso 1.000000     S
    S   1.0     0.788813     0.575679     0.424297  Biso 1.000000     S
    S   1.0     0.159449     0.106484     0.418087  Biso 1.000000     S
    S   1.0     0.659444     0.106486     0.418087  Biso 1.000000     S
    S   1.0     0.361220     0.149185     0.472530  Biso 1.000000     S
    S   1.0     0.861216     0.149185     0.472528  Biso 1.000000     S
    S   1.0     0.038809     0.575752     0.424382  Biso 1.000000     S
    S   1.0     0.538807     0.575753     0.424384  Biso 1.000000     S
    S   1.0     0.409463     0.581953     0.893562  Biso 1.000000     S
    S   1.0     0.909460     0.581952     0.893563  Biso 1.000000     S
   La   1.0    -0.005931     0.753585     0.218885  Biso 1.000000    La
   La   1.0     0.494062     0.753586     0.218888  Biso 1.000000    La
   La   1.0     0.244057     0.781143     0.246442  Biso 1.000000    La
   La   1.0     0.744054     0.781140     0.246442  Biso 1.000000    La
