#======================================================================

# CRYSTAL DATA

#----------------------------------------------------------------------

data_VESTA_phase_1


_pd_phase_name                         MOF
_cell_length_a                         17.23600
_cell_length_b                         16.94600
_cell_length_c                         17.85300
_cell_angle_alpha                      89.93500
_cell_angle_beta                       90.00100
_cell_angle_gamma                      89.18200
_symmetry_space_group_name_H-M         "P 1"
_symmetry_Int_Tables_number            1

loop_
_symmetry_equiv_pos_as_xyz
   "x, y, z"

loop_
   _atom_site_label
   _atom_site_occupancy
   _atom_site_fract_x
   _atom_site_fract_y
   _atom_site_fract_z
   _atom_site_adp_type
   _atom_site_B_iso_or_equiv
   _atom_site_type_symbol
    H   1.0     0.263323     0.076198     0.598697  Biso 1.000000     H
    H   1.0     0.143672     0.032262     0.192307  Biso 1.000000     H
    H   1.0     0.210833     0.836952     0.458932  Biso 1.000000     H
    H   1.0     0.313605     0.835278     0.462897  Biso 1.000000     H
    H   1.0     0.265580     0.868490     0.379890  Biso 1.000000     H
    H   1.0     0.264503     0.200880     0.522536  Biso 1.000000     H
    H   1.0     0.207323     0.187766     0.440451  Biso 1.000000     H
    H   1.0     0.309868     0.187835     0.433801  Biso 1.000000     H
    H   1.0     0.094214     0.912072     0.305929  Biso 1.000000     H
    H   1.0     0.052876     0.000000     0.333644  Biso 1.000000     H
    H   1.0     0.112410     0.950159     0.396823  Biso 1.000000     H
    H   1.0     0.401026     0.099049     0.249859  Biso 1.000000     H
    H   1.0     0.399109     0.077205     0.347826  Biso 1.000000     H
    H   1.0     0.361139     0.168303     0.313407  Biso 1.000000     H
    H   1.0     0.088378     0.725823     0.537838  Biso 1.000000     H
    H   1.0     0.984423     0.673354     0.453706  Biso 1.000000     H
    H   1.0     0.883048     0.905760     0.437903  Biso 1.000000     H
    H   1.0     0.980130     0.954856     0.529555  Biso 1.000000     H
    H   1.0     0.768485     0.427041     0.399823  Biso 1.000000     H
    H   1.0     0.637695     0.468922     0.804664  Biso 1.000000     H
    H   1.0     0.708542     0.663910     0.545011  Biso 1.000000     H
    H   1.0     0.811069     0.665474     0.537237  Biso 1.000000     H
    H   1.0     0.767117     0.630924     0.621412  Biso 1.000000     H
    H   1.0     0.762395     0.300840     0.474357  Biso 1.000000     H
    H   1.0     0.708700     0.314563     0.558772  Biso 1.000000     H
    H   1.0     0.811461     0.311161     0.561444  Biso 1.000000     H
    H   1.0     0.589014     0.590794     0.688264  Biso 1.000000     H
    H   1.0     0.548241     0.498601     0.663666  Biso 1.000000     H
    H   1.0     0.607648     0.548984     0.598796  Biso 1.000000     H
    H   1.0     0.896261     0.397654     0.752075  Biso 1.000000     H
    H   1.0     0.897582     0.423675     0.654945  Biso 1.000000     H
    H   1.0     0.859746     0.331812     0.684531  Biso 1.000000     H
    H   1.0     0.588845     0.775795     0.466957  Biso 1.000000     H
    H   1.0     0.483199     0.827172     0.551328  Biso 1.000000     H
    H   1.0     0.385446     0.595668     0.560739  Biso 1.000000     H
    H   1.0     0.485057     0.547619     0.469429  Biso 1.000000     H
    H   1.0     0.762790     0.576722     0.901008  Biso 1.000000     H
    H   1.0     0.643608     0.533295     0.307389  Biso 1.000000     H
    H   1.0     0.710565     0.337463     0.041513  Biso 1.000000     H
    H   1.0     0.813331     0.335837     0.037373  Biso 1.000000     H
    H   1.0     0.765446     0.369098     0.120361  Biso 1.000000     H
    H   1.0     0.765061     0.701425     0.976922  Biso 1.000000     H
    H   1.0     0.707193     0.688430     0.058611  Biso 1.000000     H
    H   1.0     0.809685     0.688267     0.066046  Biso 1.000000     H
    H   1.0     0.594751     0.412305     0.194107  Biso 1.000000     H
    H   1.0     0.552967     0.504425     0.166551  Biso 1.000000     H
    H   1.0     0.612541     0.450751     0.103189  Biso 1.000000     H
    H   1.0     0.901085     0.599882     0.249743  Biso 1.000000     H
    H   1.0     0.899073     0.578195     0.151798  Biso 1.000000     H
    H   1.0     0.861085     0.669213     0.186185  Biso 1.000000     H
    H   1.0     0.588264     0.225651     0.962078  Biso 1.000000     H
    H   1.0     0.484266     0.173137     0.046282  Biso 1.000000     H
    H   1.0     0.383408     0.405718     0.062361  Biso 1.000000     H
    H   1.0     0.480476     0.454854    -0.029388  Biso 1.000000     H
    H   1.0     0.269406     0.927045     0.100286  Biso 1.000000     H
    H   1.0     0.137798     0.968881     0.695239  Biso 1.000000     H
    H   1.0     0.208331     0.163535     0.954286  Biso 1.000000     H
    H   1.0     0.310837     0.165423     0.962270  Biso 1.000000     H
    H   1.0     0.267157     0.130697     0.878106  Biso 1.000000     H
    H   1.0     0.262545     0.800704     0.026213  Biso 1.000000     H
    H   1.0     0.208942     0.814329     0.941685  Biso 1.000000     H
    H   1.0     0.311705     0.810863     0.939121  Biso 1.000000     H
    H   1.0     0.089107     0.090660     0.810954  Biso 1.000000     H
    H   1.0     0.048326    -0.001370     0.836281  Biso 1.000000     H
    H   1.0     0.107780     0.049362     0.900732  Biso 1.000000     H
    H   1.0     0.396120     0.896776     0.748200  Biso 1.000000     H
    H   1.0     0.397497     0.923138     0.845197  Biso 1.000000     H
    H   1.0     0.359424     0.831293     0.816085  Biso 1.000000     H
    H   1.0     0.089737     0.274849     0.033396  Biso 1.000000     H
    H   1.0     0.984413     0.327606     0.949267  Biso 1.000000     H
    H   1.0     0.884984     0.096909     0.938944  Biso 1.000000     H
    H   1.0     0.984279     0.047499     0.000000  Biso 1.000000     H
    H   1.0     0.237189     0.423309     0.099032  Biso 1.000000     H
    H   1.0     0.356374     0.466612     0.692691  Biso 1.000000     H
    H   1.0     0.289404     0.662547     0.958500  Biso 1.000000     H
    H   1.0     0.186637     0.664180     0.962619  Biso 1.000000     H
    H   1.0     0.234540     0.630896     0.879648  Biso 1.000000     H
    H   1.0     0.234903     0.298585     0.023109  Biso 1.000000     H
    H   1.0     0.292778     0.311597     0.941427  Biso 1.000000     H
    H   1.0     0.190289     0.311750     0.933980  Biso 1.000000     H
    H   1.0     0.405187     0.587692     0.805926  Biso 1.000000     H
    H   1.0     0.446983     0.495570     0.833452  Biso 1.000000     H
    H   1.0     0.387433     0.549231     0.896846  Biso 1.000000     H
    H   1.0     0.098847     0.400162     0.750291  Biso 1.000000     H
    H   1.0     0.100860     0.421816     0.848242  Biso 1.000000     H
    H   1.0     0.138841     0.330805     0.813828  Biso 1.000000     H
    H   1.0     0.411754     0.774364     0.037918  Biso 1.000000     H
    H   1.0     0.515754     0.826873     0.953716  Biso 1.000000     H
    H   1.0     0.616579     0.594280     0.937606  Biso 1.000000     H
    H   1.0     0.519511     0.545148     0.000000  Biso 1.000000     H
    H   1.0     0.730582     0.072948     0.899677  Biso 1.000000     H
    H   1.0     0.862179     0.031198     0.304747  Biso 1.000000     H
    H   1.0     0.791685     0.836485     0.045716  Biso 1.000000     H
    H   1.0     0.689180     0.834590     0.037720  Biso 1.000000     H
    H   1.0     0.732847     0.869331     0.121884  Biso 1.000000     H
    H   1.0     0.737456     0.199307     0.973743  Biso 1.000000     H
    H   1.0     0.791085     0.185684     0.058256  Biso 1.000000     H
    H   1.0     0.688323     0.189149     0.060851  Biso 1.000000     H
    H   1.0     0.910921     0.909411     0.189030  Biso 1.000000     H
    H   1.0     0.951693     0.000000     0.163711  Biso 1.000000     H
    H   1.0     0.892251     0.950710     0.099254  Biso 1.000000     H
    H   1.0     0.603856     0.103230     0.251734  Biso 1.000000     H
    H   1.0     0.602490     0.076797     0.154747  Biso 1.000000     H
    H   1.0     0.640522     0.168678     0.183805  Biso 1.000000     H
    H   1.0     0.910273     0.725167     0.966599  Biso 1.000000     H
    H   1.0     0.015600     0.672421     0.050732  Biso 1.000000     H
    H   1.0     0.115033     0.903118     0.061022  Biso 1.000000     H
    H   1.0     0.015737     0.952515    -0.030043  Biso 1.000000     H
    H   1.0     0.736692     0.923702     0.401332  Biso 1.000000     H
    H   1.0     0.856316     0.967771     0.807693  Biso 1.000000     H
    H   1.0     0.789120     0.163054     0.540922  Biso 1.000000     H
    H   1.0     0.686337     0.164642     0.537135  Biso 1.000000     H
    H   1.0     0.734533     0.131500     0.620064  Biso 1.000000     H
    H   1.0     0.735340     0.799057     0.477536  Biso 1.000000     H
    H   1.0     0.792579     0.812161     0.559586  Biso 1.000000     H
    H   1.0     0.690039     0.812170     0.566290  Biso 1.000000     H
    H   1.0     0.905743     0.087961     0.694054  Biso 1.000000     H
    H   1.0     0.947100    -0.004238     0.666368  Biso 1.000000     H
    H   1.0     0.887564     0.049844     0.603169  Biso 1.000000     H
    H   1.0     0.598932     0.901057     0.750166  Biso 1.000000     H
    H   1.0     0.600891     0.922753     0.652170  Biso 1.000000     H
    H   1.0     0.638829     0.831696     0.686729  Biso 1.000000     H
    H   1.0     0.911491     0.274262     0.462136  Biso 1.000000     H
    H   1.0     0.015459     0.326743     0.546249  Biso 1.000000     H
    H   1.0     0.116828     0.094337     0.562078  Biso 1.000000     H
    H   1.0     0.019733     0.045229     0.470445  Biso 1.000000     H
    H   1.0     0.231738     0.573070     0.600166  Biso 1.000000     H
    H   1.0     0.362290     0.531072     0.195331  Biso 1.000000     H
    H   1.0     0.291487     0.336104     0.455076  Biso 1.000000     H
    H   1.0     0.188957     0.334582     0.462804  Biso 1.000000     H
    H   1.0     0.232960     0.369094     0.378642  Biso 1.000000     H
    H   1.0     0.237310     0.699232     0.525586  Biso 1.000000     H
    H   1.0     0.291375     0.685530     0.441387  Biso 1.000000     H
    H   1.0     0.188624     0.688818     0.438325  Biso 1.000000     H
    H   1.0     0.410923     0.409162     0.311703  Biso 1.000000     H
    H   1.0     0.451739     0.501333     0.336313  Biso 1.000000     H
    H   1.0     0.392323     0.450964     0.401182  Biso 1.000000     H
    H   1.0     0.103720     0.602322     0.247920  Biso 1.000000     H
    H   1.0     0.102422     0.576381     0.345070  Biso 1.000000     H
    H   1.0     0.140247     0.668223     0.315403  Biso 1.000000     H
    H   1.0     0.410716     0.224000     0.533273  Biso 1.000000     H
    H   1.0     0.516158     0.172393     0.448766  Biso 1.000000     H
    H   1.0     0.614479     0.403637     0.439383  Biso 1.000000     H
    H   1.0     0.515023     0.451927     0.530772  Biso 1.000000     H
    C   1.0     0.263079     0.868327     0.441276  Biso 1.000000     C
    C   1.0     0.262627     0.950861     0.469880  Biso 1.000000     C
    C   1.0     0.257691     0.021535     0.427861  Biso 1.000000     C
    C   1.0     0.262619     0.082716     0.480123  Biso 1.000000     C
    C   1.0     0.261107     0.169512     0.469079  Biso 1.000000     C
    C   1.0     0.105030     0.966305     0.337776  Biso 1.000000     C
    C   1.0     0.175398     0.006893     0.309800  Biso 1.000000     C
    C   1.0     0.242955     0.030400     0.347531  Biso 1.000000     C
    C   1.0     0.289307     0.067819     0.293030  Biso 1.000000     C
    C   1.0     0.366811     0.104770     0.301465  Biso 1.000000     C
    C   1.0     0.101859     0.876601     0.589230  Biso 1.000000     C
    C   1.0     0.040782     0.843858     0.538520  Biso 1.000000     C
    C   1.0     0.042529     0.764426     0.516281  Biso 1.000000     C
    C   1.0     0.985316     0.735538     0.468998  Biso 1.000000     C
    C   1.0     0.926943     0.865929     0.460946  Biso 1.000000     C
    C   1.0     0.981883     0.893830     0.511028  Biso 1.000000     C
    C   1.0     0.861424     0.754847     0.393749  Biso 1.000000     C
    C   1.0     0.927014     0.786073     0.440569  Biso 1.000000     C
    C   1.0     0.762304     0.632169     0.560152  Biso 1.000000     C
    C   1.0     0.762817     0.550162     0.530301  Biso 1.000000     C
    C   1.0     0.756063     0.479066     0.571168  Biso 1.000000     C
    C   1.0     0.762599     0.418435     0.518333  Biso 1.000000     C
    C   1.0     0.761292     0.331521     0.528308  Biso 1.000000     C
    C   1.0     0.600212     0.535133     0.658306  Biso 1.000000     C
    C   1.0     0.670781     0.493905     0.687626  Biso 1.000000     C
    C   1.0     0.739474     0.469857     0.651066  Biso 1.000000     C
    C   1.0     0.785712     0.432305     0.706387  Biso 1.000000     C
    C   1.0     0.864065     0.394682     0.699147  Biso 1.000000     C
    C   1.0     0.605624     0.626047     0.412290  Biso 1.000000     C
    C   1.0     0.543586     0.658211     0.463335  Biso 1.000000     C
    C   1.0     0.543564     0.737077     0.487271  Biso 1.000000     C
    C   1.0     0.485346     0.765370     0.534668  Biso 1.000000     C
    C   1.0     0.429096     0.635509     0.539188  Biso 1.000000     C
    C   1.0     0.485272     0.608217     0.489222  Biso 1.000000     C
    C   1.0     0.360972     0.745836     0.608405  Biso 1.000000     C
    C   1.0     0.427560     0.714865     0.561385  Biso 1.000000     C
    C   1.0     0.762829     0.368882     0.058979  Biso 1.000000     C
    C   1.0     0.762343     0.451401     0.030137  Biso 1.000000     C
    C   1.0     0.757722     0.522120     0.072004  Biso 1.000000     C
    C   1.0     0.762583     0.583264     0.019579  Biso 1.000000     C
    C   1.0     0.761176     0.670059     0.030437  Biso 1.000000     C
    C   1.0     0.605253     0.466685     0.162261  Biso 1.000000     C
    C   1.0     0.675541     0.507480     0.190096  Biso 1.000000     C
    C   1.0     0.743072     0.531040     0.152314  Biso 1.000000     C
    C   1.0     0.789336     0.568636     0.206700  Biso 1.000000     C
    C   1.0     0.866804     0.605664     0.198168  Biso 1.000000     C
    C   1.0     0.601954     0.376587     0.910745  Biso 1.000000     C
    C   1.0     0.540908     0.343781     0.961527  Biso 1.000000     C
    C   1.0     0.542518     0.264282     0.983708  Biso 1.000000     C
    C   1.0     0.485293     0.235370     0.031051  Biso 1.000000     C
    C   1.0     0.427203     0.365862     0.039267  Biso 1.000000     C
    C   1.0     0.482137     0.393784    -0.010866  Biso 1.000000     C
    C   1.0     0.361499     0.254697     0.106374  Biso 1.000000     C
    C   1.0     0.427128     0.285943     0.059575  Biso 1.000000     C
    C   1.0     0.262224     0.131947     0.939355  Biso 1.000000     C
    C   1.0     0.262928     0.049957     0.969424  Biso 1.000000     C
    C   1.0     0.256094     0.978833     0.928780  Biso 1.000000     C
    C   1.0     0.262833     0.918249     0.981781  Biso 1.000000     C
    C   1.0     0.261514     0.831316     0.972128  Biso 1.000000     C
    C   1.0     0.100309     0.035180     0.841329  Biso 1.000000     C
    C   1.0     0.170843     0.993798     0.812230  Biso 1.000000     C
    C   1.0     0.239440     0.969576     0.848912  Biso 1.000000     C
    C   1.0     0.285647     0.931907     0.793707  Biso 1.000000     C
    C   1.0     0.363905     0.894098     0.801137  Biso 1.000000     C
    C   1.0     0.105593     0.124921     0.087393  Biso 1.000000     C
    C   1.0     0.043637     0.157606     0.036514  Biso 1.000000     C
    C   1.0     0.044175     0.236633     0.012917  Biso 1.000000     C
    C   1.0     0.986165     0.265682     0.965659  Biso 1.000000     C
    C   1.0     0.928941     0.136276     0.960618  Biso 1.000000     C
    C   1.0     0.984963     0.108215     0.000000  Biso 1.000000     C
    C   1.0     0.861627     0.247849     0.892172  Biso 1.000000     C
    C   1.0     0.928001     0.215791     0.938791  Biso 1.000000     C
    C   1.0     0.237142     0.631128     0.941031  Biso 1.000000     C
    C   1.0     0.237619     0.548614     0.969888  Biso 1.000000     C
    C   1.0     0.242225     0.477892     0.928031  Biso 1.000000     C
    C   1.0     0.237375     0.416752     0.980460  Biso 1.000000     C
    C   1.0     0.238790     0.329959     0.969598  Biso 1.000000     C
    C   1.0     0.394698     0.533308     0.837769  Biso 1.000000     C
    C   1.0     0.324401     0.492521     0.809945  Biso 1.000000     C
    C   1.0     0.256867     0.468969     0.847725  Biso 1.000000     C
    C   1.0     0.210597     0.431382     0.793340  Biso 1.000000     C
    C   1.0     0.133127     0.394359     0.801865  Biso 1.000000     C
    C   1.0     0.398050     0.623429     0.089243  Biso 1.000000     C
    C   1.0     0.459095     0.656229     0.038459  Biso 1.000000     C
    C   1.0     0.457494     0.735731     0.016284  Biso 1.000000     C
    C   1.0     0.514720     0.764639     0.968940  Biso 1.000000     C
    C   1.0     0.572792     0.634140     0.960708  Biso 1.000000     C
    C   1.0     0.517859     0.606221     0.000000  Biso 1.000000     C
    C   1.0     0.638510     0.745308     0.893614  Biso 1.000000     C
    C   1.0     0.572877     0.714062     0.940409  Biso 1.000000     C
    C   1.0     0.737788     0.868072     0.060636  Biso 1.000000     C
    C   1.0     0.737082     0.950057     0.030556  Biso 1.000000     C
    C   1.0     0.743925     0.021186     0.071188  Biso 1.000000     C
    C   1.0     0.737181     0.081763     0.018181  Biso 1.000000     C
    C   1.0     0.738503     0.168696     0.027828  Biso 1.000000     C
    C   1.0     0.899713     0.964892     0.158659  Biso 1.000000     C
    C   1.0     0.829168     0.006261     0.187749  Biso 1.000000     C
    C   1.0     0.760570     0.030455     0.151054  Biso 1.000000     C
    C   1.0     0.714339     0.068112     0.206246  Biso 1.000000     C
    C   1.0     0.636065     0.105881     0.198793  Biso 1.000000     C
    C   1.0     0.894417     0.875091     0.912586  Biso 1.000000     C
    C   1.0     0.956376     0.842410     0.963464  Biso 1.000000     C
    C   1.0     0.955837     0.763386     0.987072  Biso 1.000000     C
    C   1.0     0.013848     0.734342     0.034332  Biso 1.000000     C
    C   1.0     0.071075     0.863748     0.039354  Biso 1.000000     C
    C   1.0     0.015053     0.891802    -0.010480  Biso 1.000000     C
    C   1.0     0.138386     0.752184     0.107816  Biso 1.000000     C
    C   1.0     0.072014     0.784237     0.061192  Biso 1.000000     C
    C   1.0     0.736933     0.131642     0.558674  Biso 1.000000     C
    C   1.0     0.737391     0.049095     0.530098  Biso 1.000000     C
    C   1.0     0.742286     0.978437     0.572145  Biso 1.000000     C
    C   1.0     0.737333     0.917240     0.519904  Biso 1.000000     C
    C   1.0     0.738793     0.830445     0.530979  Biso 1.000000     C
    C   1.0     0.894940     0.033716     0.662220  Biso 1.000000     C
    C   1.0     0.824576     0.993126     0.690201  Biso 1.000000     C
    C   1.0     0.757020     0.969603     0.652478  Biso 1.000000     C
    C   1.0     0.710672     0.932198     0.706990  Biso 1.000000     C
    C   1.0     0.633165     0.895249     0.698578  Biso 1.000000     C
    C   1.0     0.898021     0.123454     0.410749  Biso 1.000000     C
    C   1.0     0.959079     0.156224     0.461470  Biso 1.000000     C
    C   1.0     0.957339     0.235660     0.483696  Biso 1.000000     C
    C   1.0     0.014560     0.264555     0.530969  Biso 1.000000     C
    C   1.0     0.072929     0.134164     0.539035  Biso 1.000000     C
    C   1.0     0.017982     0.106257     0.488964  Biso 1.000000     C
    C   1.0     0.138465     0.245236     0.606218  Biso 1.000000     C
    C   1.0     0.072865     0.214024     0.559401  Biso 1.000000     C
    C   1.0     0.237746     0.367864     0.439904  Biso 1.000000     C
    C   1.0     0.237243     0.449880     0.469734  Biso 1.000000     C
    C   1.0     0.243941     0.520965     0.428836  Biso 1.000000     C
    C   1.0     0.237408     0.581611     0.481656  Biso 1.000000     C
    C   1.0     0.238678     0.668524     0.471654  Biso 1.000000     C
    C   1.0     0.399754     0.464822     0.341672  Biso 1.000000     C
    C   1.0     0.329196     0.506083     0.312366  Biso 1.000000     C
    C   1.0     0.260510     0.530150     0.348930  Biso 1.000000     C
    C   1.0     0.214280     0.567711     0.293607  Biso 1.000000     C
    C   1.0     0.135929     0.605339     0.300839  Biso 1.000000     C
    C   1.0     0.394304     0.373738     0.587929  Biso 1.000000     C
    C   1.0     0.456255     0.341464     0.536868  Biso 1.000000     C
    C   1.0     0.456069     0.262606     0.512917  Biso 1.000000     C
    C   1.0     0.514164     0.234193     0.465451  Biso 1.000000     C
    C   1.0     0.570721     0.363928     0.460950  Biso 1.000000     C
    C   1.0     0.514654     0.391338     0.510963  Biso 1.000000     C
    C   1.0     0.638551     0.253529     0.391696  Biso 1.000000     C
    C   1.0     0.572032     0.284587     0.438715  Biso 1.000000     C
    N   1.0     0.268741     0.967432     0.543620  Biso 1.000000     N
    N   1.0     0.269477     0.047992     0.548369  Biso 1.000000     N
    N   1.0     0.252099     0.066773     0.226491  Biso 1.000000     N
    N   1.0     0.183502     0.029230     0.237660  Biso 1.000000     N
    N   1.0     0.771567     0.534501     0.456615  Biso 1.000000     N
    N   1.0     0.771901     0.454007     0.450843  Biso 1.000000     N
    N   1.0     0.747383     0.433835     0.772289  Biso 1.000000     N
    N   1.0     0.678133     0.471699     0.759964  Biso 1.000000     N
    N   1.0     0.768195     0.467941     0.956318  Biso 1.000000     N
    N   1.0     0.769123     0.548505     0.951374  Biso 1.000000     N
    N   1.0     0.752078     0.567643     0.273219  Biso 1.000000     N
    N   1.0     0.683572     0.529933     0.262155  Biso 1.000000     N
    N   1.0     0.271943     0.034383     0.043153  Biso 1.000000     N
    N   1.0     0.272322     0.953921     0.049147  Biso 1.000000     N
    N   1.0     0.247398     0.933557     0.727754  Biso 1.000000     N
    N   1.0     0.178224     0.971589     0.739941  Biso 1.000000     N
    N   1.0     0.231781     0.532082     0.043710  Biso 1.000000     N
    N   1.0     0.230849     0.451518     0.048663  Biso 1.000000     N
    N   1.0     0.247857     0.432372     0.726824  Biso 1.000000     N
    N   1.0     0.316364     0.470077     0.737888  Biso 1.000000     N
    N   1.0     0.728058     0.965622     0.956827  Biso 1.000000     N
    N   1.0     0.727682     0.046083     0.950821  Biso 1.000000     N
    N   1.0     0.752575     0.066487     0.272205  Biso 1.000000     N
    N   1.0     0.821764     0.028479     0.260034  Biso 1.000000     N
    N   1.0     0.731291     0.032501     0.456365  Biso 1.000000     N
    N   1.0     0.730506     0.951940     0.451643  Biso 1.000000     N
    N   1.0     0.747884     0.933263     0.773526  Biso 1.000000     N
    N   1.0     0.816476     0.970808     0.762347  Biso 1.000000     N
    N   1.0     0.228541     0.465568     0.543422  Biso 1.000000     N
    N   1.0     0.228159     0.546067     0.549167  Biso 1.000000     N
    N   1.0     0.252609     0.566178     0.227705  Biso 1.000000     N
    N   1.0     0.321849     0.528295     0.240027  Biso 1.000000     N
    O   1.0     0.163799     0.833398     0.596819  Biso 1.000000     O
    O   1.0     0.090159     0.943266     0.619127  Biso 1.000000     O
    O   1.0     0.860265     0.677631     0.390542  Biso 1.000000     O
    O   1.0     0.812473     0.800336     0.365007  Biso 1.000000     O
    O   1.0     0.665808     0.669845     0.403616  Biso 1.000000     O
    O   1.0     0.596299     0.558985     0.383005  Biso 1.000000     O
    O   1.0     0.357764     0.823076     0.611757  Biso 1.000000     O
    O   1.0     0.313473     0.700202     0.637104  Biso 1.000000     O
    O   1.0     0.663917     0.333436     0.903185  Biso 1.000000     O
    O   1.0     0.590169     0.443278     0.880788  Biso 1.000000     O
    O   1.0     0.360212     0.177465     0.109471  Biso 1.000000     O
    O   1.0     0.312628     0.300159     0.135178  Biso 1.000000     O
    O   1.0     0.165543     0.168960     0.096548  Biso 1.000000     O
    O   1.0     0.096501     0.057478     0.116112  Biso 1.000000     O
    O   1.0     0.858803     0.325152     0.889956  Biso 1.000000     O
    O   1.0     0.813736     0.203143     0.862848  Biso 1.000000     O
    O   1.0     0.336088     0.666583     0.096798  Biso 1.000000     O
    O   1.0     0.409834     0.556741     0.119208  Biso 1.000000     O
    O   1.0     0.639793     0.822538     0.890508  Biso 1.000000     O
    O   1.0     0.687390     0.699846     0.864822  Biso 1.000000     O
    O   1.0     0.834469     0.831050     0.903434  Biso 1.000000     O
    O   1.0     0.903507     0.942535     0.883868  Biso 1.000000     O
    O   1.0     0.141202     0.674882     0.110053  Biso 1.000000     O
    O   1.0     0.186283     0.796892     0.137128  Biso 1.000000     O
    O   1.0     0.836044     0.166609     0.403169  Biso 1.000000     O
    O   1.0     0.909802     0.056812     0.380833  Biso 1.000000     O
    O   1.0     0.139665     0.322452     0.609411  Biso 1.000000     O
    O   1.0     0.187387     0.199724     0.634971  Biso 1.000000     O
    O   1.0     0.334012     0.330081     0.596500  Biso 1.000000     O
    O   1.0     0.403784     0.440730     0.617307  Biso 1.000000     O
    O   1.0     0.641483     0.176293     0.388042  Biso 1.000000     O
    O   1.0     0.686317     0.299092     0.363295  Biso 1.000000     O
   Zn   1.0     0.262869     0.882890     0.627900  Biso 1.000000    Zn
   Zn   1.0     0.766166     0.619999     0.372413  Biso 1.000000    Zn
   Zn   1.0     0.762991     0.383143     0.872219  Biso 1.000000    Zn
   Zn   1.0     0.266173     0.119765     0.127435  Biso 1.000000    Zn
   Zn   1.0     0.237015     0.616883     0.127775  Biso 1.000000    Zn
   Zn   1.0     0.733832     0.880247     0.872564  Biso 1.000000    Zn
   Zn   1.0     0.736961     0.117115     0.372081  Biso 1.000000    Zn
   Zn   1.0     0.233759     0.380052     0.627621  Biso 1.000000    Zn
