#======================================================================

# CRYSTAL DATA

#----------------------------------------------------------------------

data_VESTA_phase_1


_pd_phase_name                         MOF
_cell_length_a                         14.43500
_cell_length_b                         15.19700
_cell_length_c                         23.73300
_cell_angle_alpha                      89.93500
_cell_angle_beta                       89.99400
_cell_angle_gamma                      93.05300
_symmetry_space_group_name_H-M         "P 1"
_symmetry_Int_Tables_number            1

loop_
_symmetry_equiv_pos_as_xyz
   "x, y, z"

loop_
   _atom_site_label
   _atom_site_occupancy
   _atom_site_fract_x
   _atom_site_fract_y
   _atom_site_fract_z
   _atom_site_adp_type
   _atom_site_B_iso_or_equiv
   _atom_site_type_symbol
    H   1.0     0.387348     0.162852     0.327609  Biso 1.000000     H
    H   1.0     0.887343     0.163297     0.328619  Biso 1.000000     H
    H   1.0     0.333909     0.598281     0.145001  Biso 1.000000     H
    H   1.0     0.837539     0.598636     0.145441  Biso 1.000000     H
    H   1.0     0.249743     0.849517     0.285804  Biso 1.000000     H
    H   1.0     0.748535     0.848412     0.286109  Biso 1.000000     H
    H   1.0     0.363574     0.220674     0.145468  Biso 1.000000     H
    H   1.0     0.864023     0.219112     0.146095  Biso 1.000000     H
    H   1.0     0.346285     0.597338     0.333100  Biso 1.000000     H
    H   1.0     0.845334     0.596395     0.333596  Biso 1.000000     H
    H   1.0     0.515505     0.788879     0.962515  Biso 1.000000     H
    H   1.0     0.000000     0.792087     0.962699  Biso 1.000000     H
    H   1.0     0.509168     0.710302     0.000000  Biso 1.000000     H
    H   1.0     0.000000     0.713936     0.000000  Biso 1.000000     H
    H   1.0     0.273345     0.428455     0.138897  Biso 1.000000     H
    H   1.0     0.773803     0.428450     0.139153  Biso 1.000000     H
    H   1.0     0.213624     0.341834     0.146313  Biso 1.000000     H
    H   1.0     0.713707     0.341951     0.146272  Biso 1.000000     H
    H   1.0     0.381839     0.405725     0.248379  Biso 1.000000     H
    H   1.0     0.883154     0.405537     0.248585  Biso 1.000000     H
    H   1.0     0.384870     0.950831     0.262469  Biso 1.000000     H
    H   1.0     0.884536     0.950639     0.264427  Biso 1.000000     H
    H   1.0     0.255469     0.807093     0.184270  Biso 1.000000     H
    H   1.0     0.756471     0.806594     0.184533  Biso 1.000000     H
    H   1.0     0.370807     0.938319     0.157873  Biso 1.000000     H
    H   1.0     0.870114     0.936853     0.159936  Biso 1.000000     H
    H   1.0     0.362242     0.836087     0.827928  Biso 1.000000     H
    H   1.0     0.862252     0.834755     0.827722  Biso 1.000000     H
    H   1.0     0.416300     0.401220     0.645017  Biso 1.000000     H
    H   1.0     0.916262     0.401738     0.644062  Biso 1.000000     H
    H   1.0     0.000428     0.149565     0.784541  Biso 1.000000     H
    H   1.0     0.500533     0.151250     0.787119  Biso 1.000000     H
    H   1.0     0.387736     0.781327     0.645464  Biso 1.000000     H
    H   1.0     0.888178     0.781099     0.645415  Biso 1.000000     H
    H   1.0     0.402946     0.403512     0.833053  Biso 1.000000     H
    H   1.0     0.903417     0.401293     0.832170  Biso 1.000000     H
    H   1.0     0.230392     0.207806     0.462111  Biso 1.000000     H
    H   1.0     0.730551     0.207867     0.463365  Biso 1.000000     H
    H   1.0     0.239701     0.286775     0.504132  Biso 1.000000     H
    H   1.0     0.737846     0.286568     0.505651  Biso 1.000000     H
    H   1.0     0.477044     0.573868     0.637934  Biso 1.000000     H
    H   1.0     0.976991     0.573869     0.637760  Biso 1.000000     H
    H   1.0     0.036798     0.660429     0.645283  Biso 1.000000     H
    H   1.0     0.536473     0.660672     0.645266  Biso 1.000000     H
    H   1.0     0.368177     0.594644     0.747330  Biso 1.000000     H
    H   1.0     0.868379     0.593190     0.747541  Biso 1.000000     H
    H   1.0     0.365420     0.049083     0.763880  Biso 1.000000     H
    H   1.0     0.864739     0.048364     0.764219  Biso 1.000000     H
    H   1.0     0.495018     0.192855     0.685347  Biso 1.000000     H
    H   1.0     0.994992     0.192786     0.683072  Biso 1.000000     H
    H   1.0     0.380667     0.063438     0.659397  Biso 1.000000     H
    H   1.0     0.880291     0.063132     0.659761  Biso 1.000000     H
    H   1.0     0.112633     0.836664     0.671386  Biso 1.000000     H
    H   1.0     0.612629     0.837108     0.672395  Biso 1.000000     H
    H   1.0     0.162433     0.401323     0.854563  Biso 1.000000     H
    H   1.0     0.666057     0.401677     0.855002  Biso 1.000000     H
    H   1.0     0.251429     0.151544     0.713895  Biso 1.000000     H
    H   1.0     0.750225     0.150440     0.714201  Biso 1.000000     H
    H   1.0     0.135954     0.780847     0.853910  Biso 1.000000     H
    H   1.0     0.636400     0.779286     0.854537  Biso 1.000000     H
    H   1.0     0.154647     0.403567     0.666408  Biso 1.000000     H
    H   1.0     0.653694     0.402622     0.666903  Biso 1.000000     H
    H   1.0    -0.019422     0.207875     0.037309  Biso 1.000000     H
    H   1.0     0.484466     0.211083     0.037493  Biso 1.000000     H
    H   1.0    -0.012172     0.286022    -0.005283  Biso 1.000000     H
    H   1.0     0.490799     0.289652    -0.004725  Biso 1.000000     H
    H   1.0     0.226173     0.571511     0.860852  Biso 1.000000     H
    H   1.0     0.726632     0.571507     0.861107  Biso 1.000000     H
    H   1.0     0.286268     0.658010     0.853732  Biso 1.000000     H
    H   1.0     0.786352     0.658129     0.853691  Biso 1.000000     H
    H   1.0     0.116826     0.594424     0.751419  Biso 1.000000     H
    H   1.0     0.618138     0.594234     0.751625  Biso 1.000000     H
    H   1.0     0.115417     0.049320     0.735579  Biso 1.000000     H
    H   1.0     0.615098     0.049127     0.737535  Biso 1.000000     H
    H   1.0     0.243490     0.193362     0.815472  Biso 1.000000     H
    H   1.0     0.744494     0.192863     0.815735  Biso 1.000000     H
    H   1.0     0.129835     0.063105     0.840070  Biso 1.000000     H
    H   1.0     0.629157     0.061639     0.842131  Biso 1.000000     H
    H   1.0     0.137720     0.165210     0.172282  Biso 1.000000     H
    H   1.0     0.637730     0.163868     0.172074  Biso 1.000000     H
    H   1.0     0.083716     0.598227     0.355944  Biso 1.000000     H
    H   1.0     0.583678     0.598738     0.354988  Biso 1.000000     H
    H   1.0     0.499428     0.848698     0.212883  Biso 1.000000     H
    H   1.0     0.999532     0.850392     0.215465  Biso 1.000000     H
    H   1.0     0.111803     0.218864     0.354590  Biso 1.000000     H
    H   1.0     0.612246     0.218632     0.354540  Biso 1.000000     H
    H   1.0     0.096545     0.598665     0.167835  Biso 1.000000     H
    H   1.0     0.597019     0.596436     0.166952  Biso 1.000000     H
    H   1.0     0.269424     0.792096     0.536639  Biso 1.000000     H
    H   1.0     0.769583     0.792157     0.537893  Biso 1.000000     H
    H   1.0     0.262129     0.713394     0.494353  Biso 1.000000     H
    H   1.0     0.760273     0.713188     0.495872  Biso 1.000000     H
    H   1.0     0.022987     0.426092     0.362245  Biso 1.000000     H
    H   1.0     0.522934     0.426092     0.362071  Biso 1.000000     H
    H   1.0     0.463505     0.339289     0.354739  Biso 1.000000     H
    H   1.0     0.963181     0.339533     0.354722  Biso 1.000000     H
    H   1.0     0.131595     0.406776     0.252464  Biso 1.000000     H
    H   1.0     0.631798     0.405311     0.252676  Biso 1.000000     H
    H   1.0     0.135228     0.951599     0.235784  Biso 1.000000     H
    H   1.0     0.634542     0.950873     0.236125  Biso 1.000000     H
    H   1.0     0.004981     0.807177     0.316934  Biso 1.000000     H
    H   1.0     0.504955     0.807102     0.314657  Biso 1.000000     H
    H   1.0     0.119678     0.936830     0.340242  Biso 1.000000     H
    H   1.0     0.619297     0.936520     0.340607  Biso 1.000000     H
    C   1.0     0.380591     0.169812     0.229150  Biso 1.000000     C
    C   1.0     0.881247     0.169270     0.230009  Biso 1.000000     C
    C   1.0     0.329351     0.617898     0.243627  Biso 1.000000     C
    C   1.0     0.830207     0.617461     0.244054  Biso 1.000000     C
    C   1.0     0.382819     0.092237     0.262608  Biso 1.000000     C
    C   1.0     0.882988     0.092073     0.263890  Biso 1.000000     C
    C   1.0     0.306288     0.679527     0.201337  Biso 1.000000     C
    C   1.0     0.807821     0.679276     0.201712  Biso 1.000000     C
    C   1.0     0.380895     0.009455     0.236305  Biso 1.000000     C
    C   1.0     0.880760     0.008983     0.237985  Biso 1.000000     C
    C   1.0     0.277422     0.762819     0.217171  Biso 1.000000     C
    C   1.0     0.777988     0.762229     0.217503  Biso 1.000000     C
    C   1.0     0.372649     0.002661     0.178170  Biso 1.000000     C
    C   1.0     0.872239     0.001440     0.179901  Biso 1.000000     C
    C   1.0     0.273563     0.785518     0.273546  Biso 1.000000     C
    C   1.0     0.772962     0.784627     0.273902  Biso 1.000000     C
    C   1.0     0.365839     0.078850     0.145202  Biso 1.000000     C
    C   1.0     0.865450     0.077212     0.146544  Biso 1.000000     C
    C   1.0     0.299377     0.726336     0.315600  Biso 1.000000     C
    C   1.0     0.798347     0.725425     0.316057  Biso 1.000000     C
    C   1.0     0.370531     0.161441     0.170631  Biso 1.000000     C
    C   1.0     0.870859     0.160147     0.171537  Biso 1.000000     C
    C   1.0     0.326231     0.643177     0.300648  Biso 1.000000     C
    C   1.0     0.825804     0.642413     0.301111  Biso 1.000000     C
    C   1.0     0.387513     0.257987     0.256255  Biso 1.000000     C
    C   1.0     0.888703     0.257801     0.256665  Biso 1.000000     C
    C   1.0     0.354787     0.529327     0.226602  Biso 1.000000     C
    C   1.0     0.856258     0.529078     0.226921  Biso 1.000000     C
    C   1.0     0.369799     0.830687     0.729353  Biso 1.000000     C
    C   1.0     0.869934     0.830167     0.729350  Biso 1.000000     C
    C   1.0     0.420507     0.382339     0.743699  Biso 1.000000     C
    C   1.0     0.920609     0.381387     0.742659  Biso 1.000000     C
    C   1.0     0.367390     0.907672     0.763250  Biso 1.000000     C
    C   1.0     0.867278     0.906996     0.763374  Biso 1.000000     C
    C   1.0     0.443896     0.320417     0.701771  Biso 1.000000     C
    C   1.0     0.943843     0.320086     0.700288  Biso 1.000000     C
    C   1.0     0.369648     0.990912     0.737410  Biso 1.000000     C
    C   1.0     0.869284     0.990324     0.737666  Biso 1.000000     C
    C   1.0     0.472927     0.237325     0.718041  Biso 1.000000     C
    C   1.0     0.972885     0.236766     0.716033  Biso 1.000000     C
    C   1.0     0.378598     0.998760     0.679346  Biso 1.000000     C
    C   1.0     0.878412     0.998385     0.679617  Biso 1.000000     C
    C   1.0     0.476580     0.215086     0.774529  Biso 1.000000     C
    C   1.0     0.976525     0.213626     0.772376  Biso 1.000000     C
    C   1.0     0.385825     0.923156     0.646007  Biso 1.000000     C
    C   1.0     0.886023     0.922941     0.646177  Biso 1.000000     C
    C   1.0     0.450402     0.274492     0.816296  Biso 1.000000     C
    C   1.0     0.950411     0.272386     0.814531  Biso 1.000000     C
    C   1.0     0.380578     0.840119     0.670935  Biso 1.000000     C
    C   1.0     0.880881     0.839791     0.670964  Biso 1.000000     C
    C   1.0     0.423345     0.357467     0.800870  Biso 1.000000     C
    C   1.0     0.923545     0.355665     0.799673  Biso 1.000000     C
    C   1.0     0.362453     0.741974     0.755834  Biso 1.000000     C
    C   1.0     0.862567     0.741422     0.755772  Biso 1.000000     C
    C   1.0     0.395244     0.470799     0.726045  Biso 1.000000     C
    C   1.0     0.895314     0.470071     0.725605  Biso 1.000000     C
    C   1.0     0.118726     0.830690     0.769995  Biso 1.000000     C
    C   1.0     0.619382     0.830147     0.770854  Biso 1.000000     C
    C   1.0     0.169767     0.382500     0.755951  Biso 1.000000     C
    C   1.0     0.670621     0.382060     0.756377  Biso 1.000000     C
    C   1.0     0.116980     0.907887     0.736115  Biso 1.000000     C
    C   1.0     0.617151     0.907721     0.737397  Biso 1.000000     C
    C   1.0     0.192150     0.320682     0.798292  Biso 1.000000     C
    C   1.0     0.693680     0.320431     0.798667  Biso 1.000000     C
    C   1.0     0.119199     0.990976     0.762021  Biso 1.000000     C
    C   1.0     0.619074     0.990504     0.763699  Biso 1.000000     C
    C   1.0     0.221976     0.237728     0.782501  Biso 1.000000     C
    C   1.0     0.722543     0.237137     0.782833  Biso 1.000000     C
    C   1.0     0.127718     0.998519     0.820104  Biso 1.000000     C
    C   1.0     0.627318     0.997298     0.821834  Biso 1.000000     C
    C   1.0     0.227005     0.215330     0.726103  Biso 1.000000     C
    C   1.0     0.726405     0.214439     0.726459  Biso 1.000000     C
    C   1.0     0.134515     0.922747     0.853461  Biso 1.000000     C
    C   1.0     0.634133     0.921109     0.854802  Biso 1.000000     C
    C   1.0     0.201627     0.274535     0.683948  Biso 1.000000     C
    C   1.0     0.700599     0.273624     0.684404  Biso 1.000000     C
    C   1.0     0.129113     0.839812     0.828468  Biso 1.000000     C
    C   1.0     0.629440     0.838518     0.829373  Biso 1.000000     C
    C   1.0     0.174171     0.357547     0.698894  Biso 1.000000     C
    C   1.0     0.673743     0.356782     0.699356  Biso 1.000000     C
    C   1.0     0.111276     0.742159     0.743339  Biso 1.000000     C
    C   1.0     0.612460     0.741971     0.743750  Biso 1.000000     C
    C   1.0     0.143716     0.470883     0.773083  Biso 1.000000     C
    C   1.0     0.645184     0.470632     0.773401  Biso 1.000000     C
    C   1.0     0.130043     0.169797     0.270654  Biso 1.000000     C
    C   1.0     0.630178     0.169272     0.270650  Biso 1.000000     C
    C   1.0     0.079360     0.618575     0.257347  Biso 1.000000     C
    C   1.0     0.579465     0.617615     0.256306  Biso 1.000000     C
    C   1.0     0.132697     0.092968     0.236630  Biso 1.000000     C
    C   1.0     0.632587     0.092286     0.236755  Biso 1.000000     C
    C   1.0     0.056129     0.679876     0.299718  Biso 1.000000     C
    C   1.0     0.556077     0.679539     0.298233  Biso 1.000000     C
    C   1.0     0.130686     0.009639     0.262337  Biso 1.000000     C
    C   1.0     0.630319     0.009045     0.262594  Biso 1.000000     C
    C   1.0     0.027086     0.763196     0.283973  Biso 1.000000     C
    C   1.0     0.527045     0.762630     0.281963  Biso 1.000000     C
    C   1.0     0.121560     0.001577     0.320386  Biso 1.000000     C
    C   1.0     0.621369     0.001198     0.320659  Biso 1.000000     C
    C   1.0     0.023438     0.786333     0.227629  Biso 1.000000     C
    C   1.0     0.523383     0.784864     0.225474  Biso 1.000000     C
    C   1.0     0.113951     0.077022     0.353826  Biso 1.000000     C
    C   1.0     0.614147     0.076803     0.353997  Biso 1.000000     C
    C   1.0     0.049549     0.727572     0.185474  Biso 1.000000     C
    C   1.0     0.549559     0.725455     0.183707  Biso 1.000000     C
    C   1.0     0.119097     0.160172     0.329040  Biso 1.000000     C
    C   1.0     0.619400     0.159840     0.329068  Biso 1.000000     C
    C   1.0     0.076419     0.644295     0.200333  Biso 1.000000     C
    C   1.0     0.576622     0.642483     0.199134  Biso 1.000000     C
    C   1.0     0.137410     0.258542     0.244232  Biso 1.000000     C
    C   1.0     0.637524     0.257985     0.244170  Biso 1.000000     C
    C   1.0     0.104659     0.529892     0.274401  Biso 1.000000     C
    C   1.0     0.604731     0.529158     0.273961  Biso 1.000000     C
    O   1.0     0.484573     0.729793     0.968061  Biso 1.000000     O
    O   1.0     0.988426     0.733036     0.968326  Biso 1.000000     O
    O   1.0     0.386588     0.096559     0.319282  Biso 1.000000     O
    O   1.0     0.886560     0.096948     0.320580  Biso 1.000000     O
    O   1.0     0.309426     0.659654     0.146056  Biso 1.000000     O
    O   1.0     0.812654     0.659855     0.146428  Biso 1.000000     O
    O   1.0     0.229844     0.388283     0.118527  Biso 1.000000     O
    O   1.0     0.730258     0.388551     0.118642  Biso 1.000000     O
    O   1.0     0.320276     0.977643     0.059291  Biso 1.000000     O
    O   1.0     0.817021     0.974641     0.061760  Biso 1.000000     O
    O   1.0     0.227631     0.825121     0.392730  Biso 1.000000     O
    O   1.0     0.726911     0.826035     0.392447  Biso 1.000000     O
    O   1.0     0.277204     0.133064     0.056847  Biso 1.000000     O
    O   1.0     0.774080     0.130013     0.058977  Biso 1.000000     O
    O   1.0     0.395451     0.808066     0.394938  Biso 1.000000     O
    O   1.0     0.893700     0.803950     0.397171  Biso 1.000000     O
    O   1.0     0.440869     0.096002     0.044458  Biso 1.000000     O
    O   1.0     0.937238     0.092604     0.044607  Biso 1.000000     O
    O   1.0     0.288774     0.682098     0.422252  Biso 1.000000     O
    O   1.0     0.781612     0.680982     0.422511  Biso 1.000000     O
    O   1.0     0.394766     0.326409     0.224489  Biso 1.000000     O
    O   1.0     0.897347     0.325912     0.224691  Biso 1.000000     O
    O   1.0     0.366950     0.471254     0.266460  Biso 1.000000     O
    O   1.0     0.867236     0.470562     0.266679  Biso 1.000000     O
    O   1.0     0.386347     0.261712     0.310262  Biso 1.000000     O
    O   1.0     0.886539     0.262097     0.310659  Biso 1.000000     O
    O   1.0     0.363718     0.510559     0.174814  Biso 1.000000     O
    O   1.0     0.866742     0.510772     0.175179  Biso 1.000000     O
    O   1.0     0.261811     0.266783     0.467024  Biso 1.000000     O
    O   1.0     0.761766     0.266793     0.468902  Biso 1.000000     O
    O   1.0     0.363227     0.902443     0.819912  Biso 1.000000     O
    O   1.0     0.863058     0.901339     0.820011  Biso 1.000000     O
    O   1.0     0.440862     0.339863     0.646442  Biso 1.000000     O
    O   1.0     0.940686     0.340318     0.645045  Biso 1.000000     O
    O   1.0     0.519710     0.614653     0.617361  Biso 1.000000     O
    O   1.0     0.000000     0.614596     0.617274  Biso 1.000000     O
    O   1.0     0.432999     0.025524     0.560702  Biso 1.000000     O
    O   1.0     0.933093     0.025594     0.560907  Biso 1.000000     O
    O   1.0     0.022794     0.173242     0.891445  Biso 1.000000     O
    O   1.0     0.522270     0.175985     0.893729  Biso 1.000000     O
    O   1.0     0.475950     0.870179     0.558021  Biso 1.000000     O
    O   1.0     0.976172     0.870305     0.558074  Biso 1.000000     O
    O   1.0     0.354433     0.192679     0.895832  Biso 1.000000     O
    O   1.0     0.854770     0.189108     0.893751  Biso 1.000000     O
    O   1.0     0.312431     0.907416     0.544907  Biso 1.000000     O
    O   1.0     0.812594     0.907430     0.545156  Biso 1.000000     O
    O   1.0     0.460946     0.318798     0.923068  Biso 1.000000     O
    O   1.0     0.960781     0.315402     0.921400  Biso 1.000000     O
    O   1.0     0.355333     0.674181     0.723559  Biso 1.000000     O
    O   1.0     0.855395     0.673613     0.723622  Biso 1.000000     O
    O   1.0     0.382938     0.529189     0.765582  Biso 1.000000     O
    O   1.0     0.883055     0.527968     0.765504  Biso 1.000000     O
    O   1.0     0.363270     0.737174     0.809805  Biso 1.000000     O
    O   1.0     0.863335     0.736806     0.809800  Biso 1.000000     O
    O   1.0     0.386710     0.489202     0.674141  Biso 1.000000     O
    O   1.0     0.886626     0.489233     0.673849  Biso 1.000000     O
    O   1.0     0.011545     0.266925     0.031680  Biso 1.000000     O
    O   1.0     0.515397     0.270168     0.031944  Biso 1.000000     O
    O   1.0     0.113413     0.903012     0.679425  Biso 1.000000     O
    O   1.0     0.613388     0.903400     0.680722  Biso 1.000000     O
    O   1.0     0.187315     0.340104     0.853577  Biso 1.000000     O
    O   1.0     0.690533     0.340301     0.853948  Biso 1.000000     O
    O   1.0     0.269716     0.611413     0.881362  Biso 1.000000     O
    O   1.0     0.770130     0.611680     0.881478  Biso 1.000000     O
    O   1.0     0.182946     0.025320     0.938244  Biso 1.000000     O
    O   1.0     0.679695     0.022320     0.940712  Biso 1.000000     O
    O   1.0     0.273064     0.173928     0.607556  Biso 1.000000     O
    O   1.0     0.772344     0.174839     0.607274  Biso 1.000000     O
    O   1.0     0.225884     0.869948     0.941028  Biso 1.000000     O
    O   1.0     0.722766     0.866900     0.943158  Biso 1.000000     O
    O   1.0     0.106275     0.196012     0.602833  Biso 1.000000     O
    O   1.0     0.604525     0.191894     0.605066  Biso 1.000000     O
    O   1.0     0.062727     0.907361     0.955399  Biso 1.000000     O
    O   1.0     0.559101     0.903962     0.955547  Biso 1.000000     O
    O   1.0     0.218362     0.318981     0.577494  Biso 1.000000     O
    O   1.0     0.711201     0.317862     0.577753  Biso 1.000000     O
    O   1.0     0.102639     0.674049     0.775314  Biso 1.000000     O
    O   1.0     0.605210     0.673550     0.775516  Biso 1.000000     O
    O   1.0     0.132739     0.529398     0.733325  Biso 1.000000     O
    O   1.0     0.633025     0.528706     0.733544  Biso 1.000000     O
    O   1.0     0.113438     0.737864     0.689345  Biso 1.000000     O
    O   1.0     0.613632     0.738245     0.689743  Biso 1.000000     O
    O   1.0     0.133234     0.489191     0.824825  Biso 1.000000     O
    O   1.0     0.636260     0.489404     0.825190  Biso 1.000000     O
    O   1.0     0.238208     0.733170     0.531102  Biso 1.000000     O
    O   1.0     0.738163     0.733181     0.532981  Biso 1.000000     O
    O   1.0     0.136913     0.098626     0.179993  Biso 1.000000     O
    O   1.0     0.636742     0.097512     0.180092  Biso 1.000000     O
    O   1.0     0.059291     0.659647     0.354961  Biso 1.000000     O
    O   1.0     0.559114     0.660095     0.353563  Biso 1.000000     O
    O   1.0    -0.019840     0.385368     0.382731  Biso 1.000000     O
    O   1.0     0.480264     0.385311     0.382643  Biso 1.000000     O
    O   1.0     0.066881     0.974371     0.439098  Biso 1.000000     O
    O   1.0     0.566974     0.974439     0.439304  Biso 1.000000     O
    O   1.0     0.477636     0.823915     0.106274  Biso 1.000000     O
    O   1.0     0.977140     0.826694     0.108560  Biso 1.000000     O
    O   1.0     0.023803     0.129660     0.441929  Biso 1.000000     O
    O   1.0     0.524024     0.129785     0.441982  Biso 1.000000     O
    O   1.0     0.145171     0.810866     0.106253  Biso 1.000000     O
    O   1.0     0.645488     0.807294     0.104167  Biso 1.000000     O
    O   1.0     0.187380     0.092534     0.454848  Biso 1.000000     O
    O   1.0     0.687542     0.092547     0.455096  Biso 1.000000     O
    O   1.0     0.039191     0.684551     0.078605  Biso 1.000000     O
    O   1.0     0.539029     0.681135     0.076936  Biso 1.000000     O
    O   1.0     0.144579     0.326350     0.276383  Biso 1.000000     O
    O   1.0     0.644640     0.325778     0.276445  Biso 1.000000     O
    O   1.0     0.116919     0.471996     0.234501  Biso 1.000000     O
    O   1.0     0.617037     0.470768     0.234424  Biso 1.000000     O
    O   1.0     0.136639     0.263159     0.190205  Biso 1.000000     O
    O   1.0     0.636702     0.262786     0.190199  Biso 1.000000     O
    O   1.0     0.113349     0.510731     0.326156  Biso 1.000000     O
    O   1.0     0.613268     0.510758     0.325865  Biso 1.000000     O
    S   1.0     0.348990     0.070875     0.070999  Biso 1.000000     S
    S   1.0     0.846309     0.067970     0.072557  Biso 1.000000     S
    S   1.0     0.302513     0.762483     0.387071  Biso 1.000000     S
    S   1.0     0.799826     0.761160     0.387720  Biso 1.000000     S
    S   1.0     0.403958     0.932244     0.571962  Biso 1.000000     S
    S   1.0     0.904174     0.932266     0.572152  Biso 1.000000     S
    S   1.0     0.447276     0.238499     0.887950  Biso 1.000000     S
    S   1.0     0.947454     0.235427     0.885971  Biso 1.000000     S
    S   1.0     0.153656     0.931991     0.927448  Biso 1.000000     S
    S   1.0     0.650980     0.929088     0.929005  Biso 1.000000     S
    S   1.0     0.200149     0.238802     0.612284  Biso 1.000000     S
    S   1.0     0.697462     0.237477     0.612933  Biso 1.000000     S
    S   1.0     0.095800     0.067698     0.427852  Biso 1.000000     S
    S   1.0     0.596015     0.067719     0.428042  Biso 1.000000     S
    S   1.0     0.052496     0.764528     0.114033  Biso 1.000000     S
    S   1.0     0.552664     0.761439     0.112052  Biso 1.000000     S
   Rb   1.0     0.353935     0.989735     0.426628  Biso 1.000000    Rb
   Rb   1.0     0.853543     0.988225     0.426916  Biso 1.000000    Rb
   Rb   1.0     0.309678     0.782408     0.038958  Biso 1.000000    Rb
   Rb   1.0     0.811219     0.781080     0.039629  Biso 1.000000    Rb
   Rb   1.0     0.519011     0.391670     0.126681  Biso 1.000000    Rb
   Rb   1.0     0.000000     0.390216     0.126381  Biso 1.000000    Rb
   Rb   1.0     0.395776     0.010728     0.926772  Biso 1.000000    Rb
   Rb   1.0     0.894512     0.008271     0.926997  Biso 1.000000    Rb
   Rb   1.0     0.439851     0.218992     0.538814  Biso 1.000000    Rb
   Rb   1.0     0.939005     0.218652     0.538204  Biso 1.000000    Rb
   Rb   1.0     0.232010     0.610587     0.625840  Biso 1.000000    Rb
   Rb   1.0     0.731485     0.609797     0.626455  Biso 1.000000    Rb
   Rb   1.0     0.146431     0.011736     0.573089  Biso 1.000000    Rb
   Rb   1.0     0.646038     0.010224     0.573376  Biso 1.000000    Rb
   Rb   1.0     0.188720     0.218870     0.960375  Biso 1.000000    Rb
   Rb   1.0     0.690256     0.217538     0.961043  Biso 1.000000    Rb
   Rb   1.0    -0.018865     0.609747     0.873623  Biso 1.000000    Rb
   Rb   1.0     0.480965     0.608291     0.873324  Biso 1.000000    Rb
   Rb   1.0     0.105449     0.991693     0.073010  Biso 1.000000    Rb
   Rb   1.0     0.604180     0.989227     0.073233  Biso 1.000000    Rb
   Rb   1.0     0.060971     0.781310     0.461801  Biso 1.000000    Rb
   Rb   1.0     0.560125     0.780967     0.461190  Biso 1.000000    Rb
   Rb   1.0     0.268494     0.390164     0.373549  Biso 1.000000    Rb
   Rb   1.0     0.767968     0.389373     0.374164  Biso 1.000000    Rb
