#======================================================================

# CRYSTAL DATA

#----------------------------------------------------------------------

data_VESTA_phase_1


_pd_phase_name                         MOF
_cell_length_a                         12.39800
_cell_length_b                         20.78700
_cell_length_c                         20.78700
_cell_angle_alpha                      63.85100
_cell_angle_beta                       78.53200
_cell_angle_gamma                      101.46800
_symmetry_space_group_name_H-M         "P 1"
_symmetry_Int_Tables_number            1

loop_
_symmetry_equiv_pos_as_xyz
   "x, y, z"

loop_
   _atom_site_label
   _atom_site_occupancy
   _atom_site_fract_x
   _atom_site_fract_y
   _atom_site_fract_z
   _atom_site_adp_type
   _atom_site_B_iso_or_equiv
   _atom_site_type_symbol
    H   1.0     0.585939     0.681472     0.560059  Biso 1.000000     H
    H   1.0     0.888642     0.222773     0.477454  Biso 1.000000     H
    H   1.0     0.215879     0.581173     0.215814  Biso 1.000000     H
    H   1.0     0.420798     0.679364     0.961206  Biso 1.000000     H
    H   1.0     0.880110     0.367372     0.723648  Biso 1.000000     H
    H   1.0     0.333395     0.698705     0.788620  Biso 1.000000     H
    H   1.0     0.604386     0.273082     0.613966  Biso 1.000000     H
    H   1.0     0.841426     0.561637     0.584977  Biso 1.000000     H
    H   1.0     0.817074     0.026438     0.315280  Biso 1.000000     H
    H   1.0     0.440265     0.488260     0.732360  Biso 1.000000     H
    H   1.0     0.229994     0.469830     0.093927  Biso 1.000000     H
    H   1.0     0.652986     0.996831     0.714216  Biso 1.000000     H
    H   1.0     0.109616     0.781278     0.537812  Biso 1.000000     H
    H   1.0     0.767997     0.577548     0.110358  Biso 1.000000     H
    H   1.0     0.773317     0.022466     0.403697  Biso 1.000000     H
    H   1.0     0.191214     0.318599     0.581085  Biso 1.000000     H
    H   1.0     0.181184     0.977614     0.699985  Biso 1.000000     H
    H   1.0     0.372411     0.951402     0.382023  Biso 1.000000     H
    H   1.0     0.427314     0.721764     0.833158  Biso 1.000000     H
    H   1.0     0.636985     0.209674     0.584717  Biso 1.000000     H
    H   1.0     0.742587     0.408496     0.300231  Biso 1.000000     H
    H   1.0     0.357494     0.710063     0.312143  Biso 1.000000     H
    H   1.0     0.246025     0.420764     0.989329  Biso 1.000000     H
    H   1.0     0.279901     0.713568     0.864711  Biso 1.000000     H
    H   1.0     0.283324     0.870399     0.568406  Biso 1.000000     H
    H   1.0     0.657266     0.947897     0.378360  Biso 1.000000     H
    H   1.0     0.124806     0.897947     0.691270  Biso 1.000000     H
    H   1.0     0.973951     0.632444     0.318794  Biso 1.000000     H
    H   1.0     0.603655     0.000000     0.510992  Biso 1.000000     H
    H   1.0     0.687471     0.381249     0.617171  Biso 1.000000     H
    H   1.0     0.393875     0.730970     0.401299  Biso 1.000000     H
    H   1.0     0.403120     0.511132    -0.002782  Biso 1.000000     H
    H   1.0     0.663707     0.705778     0.603149  Biso 1.000000     H
    H   1.0     0.590778     0.714372     0.934629  Biso 1.000000     H
    H   1.0     0.846160     0.747658     0.475959  Biso 1.000000     H
    H   1.0     0.637746     0.530252     0.705318  Biso 1.000000     H
    H   1.0     0.103664     0.505122     0.501606  Biso 1.000000     H
    H   1.0     0.955554     0.796242     0.495918  Biso 1.000000     H
    H   1.0     0.318267     0.090960     0.447715  Biso 1.000000     H
    H   1.0     0.412319     0.322581     0.455207  Biso 1.000000     H
    H   1.0     0.338247     0.699810     0.012962  Biso 1.000000     H
    H   1.0     0.407482     0.289678     0.080636  Biso 1.000000     H
    H   1.0     0.835521     0.278321     0.212135  Biso 1.000000     H
    H   1.0     0.253910     0.629437     0.325564  Biso 1.000000     H
    H   1.0     0.248428     0.826203     0.470652  Biso 1.000000     H
    H   1.0     0.042707     0.207811     0.519346  Biso 1.000000     H
    H   1.0     0.024310     0.371611     0.696468  Biso 1.000000     H
    H   1.0     0.692924     0.996907     0.627567  Biso 1.000000     H
    H   1.0     0.345268     0.007219     0.301051  Biso 1.000000     H
    H   1.0     0.482626     0.079401     0.640799  Biso 1.000000     H
    H   1.0     0.515631     0.924652     0.374466  Biso 1.000000     H
    H   1.0     0.744349     0.374615     0.689700  Biso 1.000000     H
    H   1.0     0.230260     0.426504     0.904908  Biso 1.000000     H
    H   1.0     0.288703     0.316570     0.057787  Biso 1.000000     H
    H   1.0     0.132831     0.857956     0.447115  Biso 1.000000     H
    H   1.0     0.224938     0.981585     0.611567  Biso 1.000000     H
    H   1.0     0.288642     0.540849     0.287798  Biso 1.000000     H
    H   1.0     0.037190     0.296429     0.301421  Biso 1.000000     H
    H   1.0     0.827918     0.606049     0.429752  Biso 1.000000     H
    H   1.0     0.310923     0.468135     0.800989  Biso 1.000000     H
    H   1.0     0.426174     0.209964     0.214452  Biso 1.000000     H
    H   1.0     0.664860     0.305345     0.226647  Biso 1.000000     H
    H   1.0     0.625845     0.052649     0.633244  Biso 1.000000     H
    H   1.0     0.572080     0.794086     0.800816  Biso 1.000000     H
    H   1.0     0.907099     0.774756     0.690241  Biso 1.000000     H
    H   1.0     0.872626     0.694712     0.345609  Biso 1.000000     H
    H   1.0     0.427821     0.564529     0.295937  Biso 1.000000     H
    H   1.0     0.873449     0.106105     0.323997  Biso 1.000000     H
    H   1.0     0.896631     0.210016     0.260838  Biso 1.000000     H
    H   1.0     0.961069     0.707623     0.713845  Biso 1.000000     H
    H   1.0     0.255672     0.595556     0.715035  Biso 1.000000     H
    H   1.0     0.152102     0.256396     0.539305  Biso 1.000000     H
    H   1.0     0.162733     0.725729     0.803132  Biso 1.000000     H
    H   1.0     0.807046     0.685455     0.434178  Biso 1.000000     H
    H   1.0     0.865431     0.146096     0.568151  Biso 1.000000     H
    H   1.0     0.235800     0.560896     0.542140  Biso 1.000000     H
    H   1.0     0.577461     0.324687     0.054059  Biso 1.000000     H
    H   1.0     0.310787     0.622802     0.398094  Biso 1.000000     H
    H   1.0     0.863514     0.451774     0.232922  Biso 1.000000     H
    H   1.0     0.894595     0.498932     0.513655  Biso 1.000000     H
    H   1.0     0.134744     0.552278     0.782343  Biso 1.000000     H
    H   1.0     0.414687     0.576901     0.878063  Biso 1.000000     H
    H   1.0     0.640767     0.293989     0.703122  Biso 1.000000     H
    H   1.0     0.212424     0.610195     0.123217  Biso 1.000000     H
    H   1.0     0.714933     0.133652     0.446859  Biso 1.000000     H
    H   1.0     0.709554     0.687481     0.957479  Biso 1.000000     H
    H   1.0     0.699764     0.390398     0.000000  Biso 1.000000     H
    H   1.0     0.360513     0.473802     0.309945  Biso 1.000000     H
    H   1.0     0.361274     0.794378     0.430548  Biso 1.000000     H
    H   1.0     0.709616     0.463203     0.727466  Biso 1.000000     H
    H   1.0     0.570940     0.282287     0.182109  Biso 1.000000     H
    H   1.0     0.583575     0.427151     0.137203  Biso 1.000000     H
    H   1.0     0.752232     0.583287     0.025938  Biso 1.000000     H
    H   1.0     0.782379     0.422880     0.799449  Biso 1.000000     H
    H   1.0     0.207089     0.337352     0.983482  Biso 1.000000     H
    H   1.0     0.762459     0.443157     0.473123  Biso 1.000000     H
    H   1.0     0.768268     0.534221     0.921338  Biso 1.000000     H
    H   1.0     0.557992     0.515793     0.282904  Biso 1.000000     H
    H   1.0     0.660011     0.304243     0.000000  Biso 1.000000     H
    H   1.0     0.749831     0.177847     0.544616  Biso 1.000000     H
    H   1.0     0.118150     0.636682     0.291615  Biso 1.000000     H
    H   1.0     0.340990     0.056155     0.636905  Biso 1.000000     H
    H   1.0     0.101624     0.794035     0.754427  Biso 1.000000     H
    H   1.0     0.791173     0.666700     0.031783  Biso 1.000000     H
    H   1.0     0.305333     0.007145     0.387699  Biso 1.000000     H
    H   1.0     0.570436     0.439525     0.719329  Biso 1.000000     H
    H   1.0     0.334552     0.298275     0.412117  Biso 1.000000     H
    H   1.0     0.718354     0.290484     0.150554  Biso 1.000000     H
    H   1.0     0.668174     0.886390     0.736050  Biso 1.000000     H
    H   1.0     0.298496     0.613653     0.012094  Biso 1.000000     H
    H   1.0     0.394600    -0.006078     0.504274  Biso 1.000000     H
    H   1.0     0.687334     0.535918     0.214277  Biso 1.000000     H
    H   1.0     0.125636     0.309344     0.669653  Biso 1.000000     H
    H   1.0     0.595140     0.492919     0.000000  Biso 1.000000     H
    H   1.0     0.330082     0.117661     0.279218  Biso 1.000000     H
    H   1.0     0.679987     0.913091     0.567552  Biso 1.000000     H
    H   1.0     0.156833     0.442417     0.430287  Biso 1.000000     H
    H   1.0     0.170343     0.398006     0.585509  Biso 1.000000     H
    H   1.0     0.785836     0.393856     0.892047  Biso 1.000000     H
    H   1.0     0.091161     0.229297     0.325025  Biso 1.000000     H
    C   1.0     0.592394     0.842614     0.744112  Biso 1.000000     C
    C   1.0     0.423971     0.045384     0.625762  Biso 1.000000     C
    C   1.0     0.288147     0.840231     0.735678  Biso 1.000000     C
    C   1.0     0.073696     0.665872     0.379923  Biso 1.000000     C
    C   1.0     0.354338     0.733948     0.813793  Biso 1.000000     C
    C   1.0     0.325596     0.738112     0.437567  Biso 1.000000     C
    C   1.0     0.786333     0.276969     0.594339  Biso 1.000000     C
    C   1.0     0.924566     0.338181     0.635340  Biso 1.000000     C
    C   1.0     0.372205    -0.000290     0.350600  Biso 1.000000     C
    C   1.0     0.546784     0.563589     0.168490  Biso 1.000000     C
    C   1.0     0.736218     0.606661     0.063651  Biso 1.000000     C
    C   1.0     0.262041     0.397392     0.951615  Biso 1.000000     C
    C   1.0     0.281091     0.660236     0.353740  Biso 1.000000     C
    C   1.0     0.431981     0.563611     0.192429  Biso 1.000000     C
    C   1.0     0.574285     0.958668     0.389505  Biso 1.000000     C
    C   1.0     0.382355     0.338709     0.047179  Biso 1.000000     C
    C   1.0     0.753778     0.430039     0.848613  Biso 1.000000     C
    C   1.0     0.374826     0.590736     0.138932  Biso 1.000000     C
    C   1.0     0.985443     0.274590     0.567036  Biso 1.000000     C
    C   1.0     0.211927     0.727085     0.420925  Biso 1.000000     C
    C   1.0     0.921978     0.743683     0.495282  Biso 1.000000     C
    C   1.0     0.841990     0.197116     0.537860  Biso 1.000000     C
    C   1.0     0.566271     0.440434     0.822836  Biso 1.000000     C
    C   1.0     0.374112     0.534188     0.275236  Biso 1.000000     C
    C   1.0     0.643918     0.270102     0.201473  Biso 1.000000     C
    C   1.0     0.181454     0.778728     0.750434  Biso 1.000000     C
    C   1.0     0.489830     0.870250     0.732778  Biso 1.000000     C
    C   1.0     0.626051     0.000000     0.664666  Biso 1.000000     C
    C   1.0     0.562348     0.378028     0.954658  Biso 1.000000     C
    C   1.0     0.405861     0.161437     0.271156  Biso 1.000000     C
    C   1.0     0.717168     0.343816     0.661524  Biso 1.000000     C
    C   1.0     0.816800     0.225323     0.264834  Biso 1.000000     C
    C   1.0     0.508426     0.133800     0.282484  Biso 1.000000     C
    C   1.0     0.615903     0.665340     0.968087  Biso 1.000000     C
    C   1.0     0.987182     0.687243     0.412581  Biso 1.000000     C
    C   1.0     0.303219     0.918041     0.692908  Biso 1.000000     C
    C   1.0     0.507103     0.948487     0.688972  Biso 1.000000     C
    C   1.0     0.491150     0.055563     0.326301  Biso 1.000000     C
    C   1.0     0.585500     0.031820     0.344364  Biso 1.000000     C
    C   1.0     0.554224     0.632246     0.036637  Biso 1.000000     C
    C   1.0     0.011079     0.316809     0.602683  Biso 1.000000     C
    C   1.0     0.695034     0.086011     0.322364  Biso 1.000000     C
    C   1.0     0.870540     0.250547     0.567220  Biso 1.000000     C
    C   1.0     0.412759     0.972231     0.670897  Biso 1.000000     C
    C   1.0     0.710111     0.163821     0.279582  Biso 1.000000     C
    C   1.0     0.435909     0.626017     0.060606  Biso 1.000000     C
    C   1.0     0.044250     0.621251     0.340727  Biso 1.000000     C
    C   1.0     0.130639     0.336816     0.609621  Biso 1.000000     C
    C   1.0     0.244481     0.574012     0.166651  Biso 1.000000     C
    C   1.0     0.609615     0.599498     0.090612  Biso 1.000000     C
    C   1.0     0.372777     0.658037     0.004915  Biso 1.000000     C
    C   1.0     0.794668     0.059246     0.342467  Biso 1.000000     C
    C   1.0     0.672664     0.265940     0.577698  Biso 1.000000     C
    C   1.0     0.812310     0.320195     0.629419  Biso 1.000000     C
    C   1.0     0.592192     0.516505     0.229663  Biso 1.000000     C
    C   1.0     0.954010     0.382803     0.674536  Biso 1.000000     C
    C   1.0     0.379104     0.816607     0.759793  Biso 1.000000     C
    C   1.0     0.388639     0.404545     0.924655  Biso 1.000000     C
    C   1.0     0.867621     0.667239     0.405642  Biso 1.000000     C
    C   1.0     0.444040     0.371811     0.978629  Biso 1.000000     C
    C   1.0     0.624147     0.469867     0.740029  Biso 1.000000     C
    C   1.0     0.076283     0.260370     0.519982  Biso 1.000000     C
    C   1.0     0.623435     0.413323     0.876331  Biso 1.000000     C
    C   1.0     0.625482     0.346016     0.000000  Biso 1.000000     C
    C   1.0     0.127718     0.753504     0.448047  Biso 1.000000     C
    C   1.0     0.012816     0.729463     0.448228  Biso 1.000000     C
    C   1.0     0.203588     0.944805     0.672798  Biso 1.000000     C
    C   1.0     0.156270     0.806935     0.477407  Biso 1.000000     C
    C   1.0     0.619147     0.187445     0.255480  Biso 1.000000     C
    C   1.0     0.451476     0.440469     0.846776  Biso 1.000000     C
    C   1.0     0.406065     0.487546     0.785602  Biso 1.000000     C
    C   1.0     0.185951     0.683857     0.385846  Biso 1.000000     C
    O   1.0     0.826743     0.437227     0.285539  Biso 1.000000     O
    O   1.0     0.171516     0.566825     0.729725  Biso 1.000000     O
    O   1.0     0.576847     0.616570     0.750746  Biso 1.000000     O
    O   1.0     0.608314     0.719728     0.574353  Biso 1.000000     O
    O   1.0     0.106731     0.281935     0.287125  Biso 1.000000     O
    O   1.0     0.488742     0.170123     0.487411  Biso 1.000000     O
    O   1.0     0.372492     0.580862     0.839524  Biso 1.000000     O
    O   1.0     0.221137     0.318469     0.376555  Biso 1.000000     O
    O   1.0     0.025462     0.520700     0.661909  Biso 1.000000     O
    O   1.0     0.157836     0.474031     0.121866  Biso 1.000000     O
    O   1.0     0.232484     0.426458     0.236001  Biso 1.000000     O
    O   1.0     0.652852     0.540384     0.967053  Biso 1.000000     O
    O   1.0     0.317009     0.743123     0.656776  Biso 1.000000     O
    O   1.0     0.777124     0.685585     0.638709  Biso 1.000000     O
    O   1.0     0.039903     0.455318     0.243383  Biso 1.000000     O
    O   1.0     0.795589     0.596546     0.588325  Biso 1.000000     O
    O   1.0     0.891529     0.722118     0.728142  Biso 1.000000     O
    O   1.0     0.279669     0.239977     0.310683  Biso 1.000000     O
    O   1.0     0.765778     0.577595     0.779264  Biso 1.000000     O
    O   1.0     0.190065     0.659634     0.585125  Biso 1.000000     O
    O   1.0     0.471690     0.570084     0.939602  Biso 1.000000     O
    O   1.0     0.625770     0.423191     0.175741  Biso 1.000000     O
    O   1.0     0.685820     0.410742     0.477957  Biso 1.000000     O
    O   1.0     0.681248     0.260929     0.358489  Biso 1.000000     O
    O   1.0     0.345408     0.463666     0.048212  Biso 1.000000     O
    O   1.0     0.034486     0.354508     0.390894  Biso 1.000000     O
    O   1.0     0.963773     0.649544     0.624370  Biso 1.000000     O
    O   1.0     0.884383     0.495393     0.466122  Biso 1.000000     O
    O   1.0     0.312438     0.593310     0.537307  Biso 1.000000     O
    O   1.0     0.389944     0.284324     0.440914  Biso 1.000000     O
    O   1.0     0.610452     0.958947     0.515012  Biso 1.000000     O
    O   1.0     0.093903     0.497922     0.436209  Biso 1.000000     O
    O   1.0     0.387802     0.045104     0.500255  Biso 1.000000     O
    O   1.0     0.202439     0.832408     0.603396  Biso 1.000000     O
    O   1.0     0.526569     0.433967     0.075664  Biso 1.000000     O
    O   1.0     0.463953     0.232344     0.348119  Biso 1.000000     O
    O   1.0     0.723818     0.885206     0.600054  Biso 1.000000     O
    O   1.0     0.586606     0.307996     0.459163  Biso 1.000000     O
    O   1.0     0.509515     0.833927     0.527855  Biso 1.000000     O
    O   1.0     0.320827     0.350638     0.172830  Biso 1.000000     O
    O   1.0     0.958356     0.548732     0.771882  Biso 1.000000     O
    O   1.0     0.593518     0.373115     0.315090  Biso 1.000000     O
    O   1.0     0.113875     0.508662     0.549139  Biso 1.000000     O
    O   1.0     0.596505     0.072500     0.502652  Biso 1.000000     O
    O   1.0     0.401750     0.931550     0.512613  Biso 1.000000     O
    O   1.0     0.534302     0.771708     0.667147  Biso 1.000000     O
    O   1.0     0.677433     0.653413     0.842435  Biso 1.000000     O
    O   1.0     0.094286     0.693036     0.692744  Biso 1.000000     O
    O   1.0     0.404741     0.630937     0.700177  Biso 1.000000     O
    O   1.0     0.274436     0.118846     0.415214  Biso 1.000000     O
    O   1.0     0.411654     0.696054     0.556103  Biso 1.000000     O
    O   1.0     0.840426     0.530020     0.893398  Biso 1.000000     O
    O   1.0     0.904354     0.506130     0.579055  Biso 1.000000     O
    O   1.0     0.718586     0.764075     0.704584  Biso 1.000000     O
    O   1.0     0.808196     0.344419     0.430140  Biso 1.000000     O
    O   1.0     0.421413     0.387481     0.264519  Biso 1.000000     O
    O   1.0     0.972800     0.483354     0.353353  Biso 1.000000     O
    O   1.0     0.202670     0.407509     0.426938  Biso 1.000000     O
    O   1.0     0.795818     0.171643     0.411870  Biso 1.000000     O
    O   1.0     0.903972     0.311015     0.322522  Biso 1.000000     O
   Al   1.0     0.934830     0.396272     0.342132  Biso 1.000000    Al
   Al   1.0     0.271590     0.338647     0.271482  Biso 1.000000    Al
   Al   1.0     0.459589     0.735749     0.615064  Biso 1.000000    Al
   Al   1.0     0.538668     0.268302     0.400202  Biso 1.000000    Al
   Al   1.0     0.726669     0.665406     0.743782  Biso 1.000000    Al
   Al   1.0     0.063430     0.607780     0.673132  Biso 1.000000    Al
    P   1.0     0.865558     0.665646     0.593224  Biso 1.000000     P
    P   1.0     0.165222     0.476129     0.196299  Biso 1.000000     P
    P   1.0     0.998027     0.485312     0.614973  Biso 1.000000     P
    P   1.0     0.356976     0.192559     0.338229  Biso 1.000000     P
    P   1.0     0.000232     0.518741     0.400289  Biso 1.000000     P
    P   1.0     0.482142     0.087772     0.523289  Biso 1.000000     P
    P   1.0     0.833037     0.527921     0.818966  Biso 1.000000     P
    P   1.0     0.397133     0.397866     0.090604  Biso 1.000000     P
    P   1.0     0.307062     0.669766     0.535375  Biso 1.000000     P
    P   1.0     0.516114     0.916278     0.491977  Biso 1.000000     P
    P   1.0     0.202833     0.758398     0.672674  Biso 1.000000     P
    P   1.0     0.550774     0.418544     0.249561  Biso 1.000000     P
    P   1.0     0.601127     0.606184     0.924661  Biso 1.000000     P
    P   1.0     0.132702     0.338407     0.422040  Biso 1.000000     P
    P   1.0     0.447486     0.585507     0.765705  Biso 1.000000     P
    P   1.0     0.691198     0.334286     0.479890  Biso 1.000000     P
    P   1.0     0.795424     0.245653     0.342593  Biso 1.000000     P
    P   1.0     0.641279     0.811493     0.677038  Biso 1.000000     P
