#======================================================================

# CRYSTAL DATA

#----------------------------------------------------------------------

data_VESTA_phase_1


_pd_phase_name                         MOF
_cell_length_a                         14.91700
_cell_length_b                         14.58800
_cell_length_c                         14.40700
_cell_angle_alpha                      105.79400
_cell_angle_beta                       92.52100
_cell_angle_gamma                      91.76900
_symmetry_space_group_name_H-M         "P 1"
_symmetry_Int_Tables_number            1

loop_
_symmetry_equiv_pos_as_xyz
   "x, y, z"

loop_
   _atom_site_label
   _atom_site_occupancy
   _atom_site_fract_x
   _atom_site_fract_y
   _atom_site_fract_z
   _atom_site_adp_type
   _atom_site_B_iso_or_equiv
   _atom_site_type_symbol
    H   1.0     0.351269     0.295660     0.941759  Biso 1.000000     H
    H   1.0     0.851280     0.295661     0.941759  Biso 1.000000     H
    H   1.0     0.310332     0.078311     0.666845  Biso 1.000000     H
    H   1.0     0.810341     0.078308     0.666847  Biso 1.000000     H
    H   1.0     0.468395     0.158409     0.108502  Biso 1.000000     H
    H   1.0     0.968406     0.158411     0.108498  Biso 1.000000     H
    H   1.0     0.343777     0.055678     0.003540  Biso 1.000000     H
    H   1.0     0.843788     0.055679     0.003538  Biso 1.000000     H
    H   1.0     0.141786     0.889491     0.787883  Biso 1.000000     H
    H   1.0     0.641793     0.889486     0.787880  Biso 1.000000     H
    H   1.0     0.473735     0.039075     0.296206  Biso 1.000000     H
    H   1.0     0.973751     0.039080     0.296210  Biso 1.000000     H
    H   1.0     0.209133     0.560109     0.170420  Biso 1.000000     H
    H   1.0     0.709145     0.560109     0.170420  Biso 1.000000     H
    H   1.0     0.405238     0.377056     0.293238  Biso 1.000000     H
    H   1.0     0.905251     0.377056     0.293238  Biso 1.000000     H
    H   1.0     0.094772     0.622926     0.706747  Biso 1.000000     H
    H   1.0     0.594783     0.622927     0.706746  Biso 1.000000     H
    H   1.0     0.462720     0.869094     0.443274  Biso 1.000000     H
    H   1.0     0.962732     0.869095     0.443278  Biso 1.000000     H
    H   1.0     0.367586     0.566892     0.129985  Biso 1.000000     H
    H   1.0     0.867598     0.566892     0.129984  Biso 1.000000     H
    H   1.0     0.080244     0.354573     0.505236  Biso 1.000000     H
    H   1.0     0.580256     0.354574     0.505236  Biso 1.000000     H
    H   1.0     0.396198     0.228147     0.564847  Biso 1.000000     H
    H   1.0     0.896207     0.228146     0.564851  Biso 1.000000     H
    H   1.0     0.350975     0.919750     0.373575  Biso 1.000000     H
    H   1.0     0.850990     0.919754     0.373576  Biso 1.000000     H
    H   1.0     0.251978     0.760877     0.952782  Biso 1.000000     H
    H   1.0     0.751991     0.760876     0.952781  Biso 1.000000     H
    H   1.0     0.035629     0.581104     0.374526  Biso 1.000000     H
    H   1.0     0.535641     0.581105     0.374526  Biso 1.000000     H
    H   1.0     0.148743     0.704327     0.058226  Biso 1.000000     H
    H   1.0     0.648757     0.704326     0.058225  Biso 1.000000     H
    H   1.0     0.037300     0.130888     0.556702  Biso 1.000000     H
    H   1.0     0.537312     0.130887     0.556698  Biso 1.000000     H
    H   1.0     0.046280     0.968859     0.372897  Biso 1.000000     H
    H   1.0     0.546294     0.968858     0.372894  Biso 1.000000     H
    H   1.0     0.031616     0.841571     0.891480  Biso 1.000000     H
    H   1.0     0.531631     0.841570     0.891480  Biso 1.000000     H
    H   1.0     0.358227     0.110489     0.212095  Biso 1.000000     H
    H   1.0     0.858245     0.110495     0.212098  Biso 1.000000     H
    H   1.0     0.290878     0.439879     0.829568  Biso 1.000000     H
    H   1.0     0.790890     0.439879     0.829568  Biso 1.000000     H
    H   1.0     0.022667     0.368603     0.941961  Biso 1.000000     H
    H   1.0     0.522679     0.368603     0.941961  Biso 1.000000     H
    H   1.0     0.419769     0.645405     0.494749  Biso 1.000000     H
    H   1.0     0.919781     0.645404     0.494750  Biso 1.000000     H
    H   1.0     0.248034     0.239106     0.047200  Biso 1.000000     H
    H   1.0     0.748045     0.239107     0.047201  Biso 1.000000     H
    H   1.0     0.103822     0.771834     0.435131  Biso 1.000000     H
    H   1.0     0.603838     0.771835     0.435127  Biso 1.000000     H
    H   1.0     0.287741     0.296556     0.467666  Biso 1.000000     H
    H   1.0     0.787750     0.296555     0.467669  Biso 1.000000     H
    H   1.0     0.484327     0.563205     0.800767  Biso 1.000000     H
    H   1.0     0.984340     0.563205     0.800767  Biso 1.000000     H
    H   1.0     0.212275     0.703423     0.532314  Biso 1.000000     H
    H   1.0     0.712290     0.703424     0.532311  Biso 1.000000     H
    H   1.0     0.189688     0.921671     0.333130  Biso 1.000000     H
    H   1.0     0.689703     0.921674     0.333129  Biso 1.000000     H
    H   1.0     0.132425     0.433095     0.870003  Biso 1.000000     H
    H   1.0     0.632437     0.433095     0.870003  Biso 1.000000     H
    H   1.0     0.059296     0.528346     0.126786  Biso 1.000000     H
    H   1.0     0.559309     0.528347     0.126786  Biso 1.000000     H
    H   1.0     0.477344     0.631385     0.058025  Biso 1.000000     H
    H   1.0     0.977356     0.631385     0.058025  Biso 1.000000     H
    H   1.0     0.440714     0.471641     0.873201  Biso 1.000000     H
    H   1.0     0.940726     0.471641     0.873201  Biso 1.000000     H
    H   1.0     0.015682     0.436780     0.199219  Biso 1.000000     H
    H   1.0     0.515694     0.436781     0.199220  Biso 1.000000     H
    H   1.0     0.026283     0.960908     0.703769  Biso 1.000000     H
    H   1.0     0.526290     0.960902     0.703765  Biso 1.000000     H
    H   1.0     0.149044     0.080232     0.626401  Biso 1.000000     H
    H   1.0     0.649054     0.080228     0.626400  Biso 1.000000     H
    H   1.0     0.453739     0.031123     0.627079  Biso 1.000000     H
    H   1.0     0.953750     0.031124     0.627082  Biso 1.000000     H
    H   1.0     0.464384     0.418874     0.625460  Biso 1.000000     H
    H   1.0     0.964397     0.418873     0.625460  Biso 1.000000     H
    H   1.0     0.156235     0.944303     0.996440  Biso 1.000000     H
    H   1.0     0.656249     0.944301     0.996442  Biso 1.000000     H
    C   1.0     0.104943     0.638986     0.785016  Biso 1.000000     C
    C   1.0     0.604955     0.638986     0.785015  Biso 1.000000     C
    C   1.0     0.366204     0.315389     0.019533  Biso 1.000000     C
    C   1.0     0.866216     0.315389     0.019534  Biso 1.000000     C
    C   1.0     0.019440     0.546199     0.430041  Biso 1.000000     C
    C   1.0     0.519450     0.546198     0.430039  Biso 1.000000     C
    C   1.0     0.390943     0.200205     0.486423  Biso 1.000000     C
    C   1.0     0.890953     0.200205     0.486426  Biso 1.000000     C
    C   1.0     0.069233     0.056741     0.060074  Biso 1.000000     C
    C   1.0     0.569245     0.056734     0.060087  Biso 1.000000     C
    C   1.0     0.133807     0.684597     0.980451  Biso 1.000000     C
    C   1.0     0.633820     0.684596     0.980451  Biso 1.000000     C
    C   1.0     0.443492     0.124864     0.439640  Biso 1.000000     C
    C   1.0     0.943504     0.124866     0.439643  Biso 1.000000     C
    C   1.0     0.356171     0.883711     0.875552  Biso 1.000000     C
    C   1.0     0.856183     0.883714     0.875546  Biso 1.000000     C
    C   1.0     0.129494     0.864494     0.709849  Biso 1.000000     C
    C   1.0     0.629503     0.864489     0.709846  Biso 1.000000     C
    C   1.0     0.132278     0.425268     0.358034  Biso 1.000000     C
    C   1.0     0.632289     0.425268     0.358034  Biso 1.000000     C
    C   1.0     0.307606     0.284106     0.077540  Biso 1.000000     C
    C   1.0     0.807618     0.284107     0.077540  Biso 1.000000     C
    C   1.0     0.430781     0.943244     0.939899  Biso 1.000000     C
    C   1.0     0.930789     0.943239     0.939907  Biso 1.000000     C
    C   1.0     0.480575     0.453781     0.569947  Biso 1.000000     C
    C   1.0     0.980585     0.453777     0.569944  Biso 1.000000     C
    C   1.0     0.412579     0.032496     0.001666  Biso 1.000000     C
    C   1.0     0.912591     0.032502     0.001656  Biso 1.000000     C
    C   1.0     0.455046     0.581501     0.496184  Biso 1.000000     C
    C   1.0     0.955055     0.581497     0.496181  Biso 1.000000     C
    C   1.0     0.044969     0.418479     0.503804  Biso 1.000000     C
    C   1.0     0.544979     0.418478     0.503802  Biso 1.000000     C
    C   1.0     0.316246     0.538718     0.072012  Biso 1.000000     C
    C   1.0     0.816259     0.538717     0.072012  Biso 1.000000     C
    C   1.0     0.226838     0.535009     0.095282  Biso 1.000000     C
    C   1.0     0.726850     0.535009     0.095282  Biso 1.000000     C
    C   1.0     0.215821     0.955967     0.406832  Biso 1.000000     C
    C   1.0     0.715834     0.955969     0.406831  Biso 1.000000     C
    C   1.0     0.183764     0.461270     0.927976  Biso 1.000000     C
    C   1.0     0.683776     0.461270     0.927976  Biso 1.000000     C
    C   1.0     0.156819     0.001352     0.476142  Biso 1.000000     C
    C   1.0     0.656832     0.001351     0.476141  Biso 1.000000     C
    C   1.0     0.498860     0.076122     0.500134  Biso 1.000000     C
    C   1.0     0.998872     0.076123     0.500137  Biso 1.000000     C
    C   1.0     0.192405     0.715878     0.922444  Biso 1.000000     C
    C   1.0     0.692418     0.715877     0.922443  Biso 1.000000     C
    C   1.0     0.006794     0.576190     0.000000  Biso 1.000000     C
    C   1.0     0.506807     0.576190     0.000000  Biso 1.000000     C
    C   1.0     0.087432     0.967482     0.998320  Biso 1.000000     C
    C   1.0     0.587448     0.967485     0.998314  Biso 1.000000     C
    C   1.0     0.284199     0.044014     0.593144  Biso 1.000000     C
    C   1.0     0.784210     0.044013     0.593145  Biso 1.000000     C
    C   1.0     0.395067     0.360998     0.214969  Biso 1.000000     C
    C   1.0     0.895080     0.360998     0.214969  Biso 1.000000     C
    C   1.0     0.001159     0.923860     0.499842  Biso 1.000000     C
    C   1.0     0.501172     0.923859     0.499838  Biso 1.000000     C
    C   1.0     0.062415     0.506387     0.047941  Biso 1.000000     C
    C   1.0     0.562427     0.506387     0.047941  Biso 1.000000     C
    C   1.0     0.440611     0.376423     0.061231  Biso 1.000000     C
    C   1.0     0.940623     0.376423     0.061231  Biso 1.000000     C
    C   1.0     0.493216     0.423798    -0.001002  Biso 1.000000     C
    C   1.0     0.993229     0.423797    -0.001002  Biso 1.000000     C
    C   1.0     0.059400     0.623563     0.938755  Biso 1.000000     C
    C   1.0     0.559412     0.623564     0.938755  Biso 1.000000     C
    C   1.0     0.307249     0.954506     0.430128  Biso 1.000000     C
    C   1.0     0.807262     0.954508     0.430128  Biso 1.000000     C
    C   1.0     0.434694     0.535565     0.567045  Biso 1.000000     C
    C   1.0     0.934711     0.535567     0.567048  Biso 1.000000     C
    C   1.0     0.341077     0.503211     0.976472  Biso 1.000000     C
    C   1.0     0.841090     0.503211     0.976472  Biso 1.000000     C
    C   1.0     0.343201     0.998630     0.523834  Biso 1.000000     C
    C   1.0     0.843213     0.998631     0.523835  Biso 1.000000     C
    C   1.0     0.158933     0.496777     0.023516  Biso 1.000000     C
    C   1.0     0.658945     0.496777     0.023516  Biso 1.000000     C
    C   1.0     0.109076     0.799777     0.513555  Biso 1.000000     C
    C   1.0     0.609090     0.799776     0.513551  Biso 1.000000     C
    C   1.0     0.370521     0.135487     0.290129  Biso 1.000000     C
    C   1.0     0.870537     0.135491     0.290132  Biso 1.000000     C
    C   1.0     0.367736     0.574711     0.641952  Biso 1.000000     C
    C   1.0     0.867746     0.574708     0.641950  Biso 1.000000     C
    C   1.0     0.442389     0.007666     0.548248  Biso 1.000000     C
    C   1.0     0.942401     0.007668     0.548251  Biso 1.000000     C
    C   1.0     0.456402     0.395454     0.161248  Biso 1.000000     C
    C   1.0     0.956415     0.395454     0.161248  Biso 1.000000     C
    C   1.0     0.273173     0.464978     0.904706  Biso 1.000000     C
    C   1.0     0.773185     0.464978     0.904706  Biso 1.000000     C
    C   1.0     0.433898     0.095046     0.338758  Biso 1.000000     C
    C   1.0     0.933913     0.095050     0.338761  Biso 1.000000     C
    C   1.0     0.065315     0.464410     0.432938  Biso 1.000000     C
    C   1.0     0.565330     0.464414     0.432941  Biso 1.000000     C
    C   1.0     0.192771     0.045476     0.569848  Biso 1.000000     C
    C   1.0     0.692782     0.045474     0.569848  Biso 1.000000     C
    C   1.0     0.143840     0.116268     0.124431  Biso 1.000000     C
    C   1.0     0.643855     0.116269     0.124430  Biso 1.000000     C
    C   1.0     0.018649     0.911228     0.939196  Biso 1.000000     C
    C   1.0     0.518661     0.911223     0.939206  Biso 1.000000     C
    C   1.0     0.170178     0.761580     0.566424  Biso 1.000000     C
    C   1.0     0.670192     0.761579     0.566421  Biso 1.000000     C
    C   1.0     0.437596     0.493601     0.952047  Biso 1.000000     C
    C   1.0     0.937608     0.493601     0.952046  Biso 1.000000     C
    C   1.0     0.329838     0.238400     0.433555  Biso 1.000000     C
    C   1.0     0.829849     0.238401     0.433558  Biso 1.000000     C
    C   1.0     0.066119     0.904936     0.661219  Biso 1.000000     C
    C   1.0     0.566128     0.904932     0.661215  Biso 1.000000     C
    C   1.0     0.057630     0.992315     0.451727  Biso 1.000000     C
    C   1.0     0.557643     0.992314     0.451724  Biso 1.000000     C
    C   1.0     0.043608     0.604531     0.838738  Biso 1.000000     C
    C   1.0     0.543620     0.604531     0.838738  Biso 1.000000     C
    C   1.0     0.056527     0.875118     0.560336  Biso 1.000000     C
    C   1.0     0.556539     0.875115     0.560333  Biso 1.000000     C
    C   1.0     0.481365     0.088758     0.060775  Biso 1.000000     C
    C   1.0     0.981374     0.088755     0.060780  Biso 1.000000     C
    N   1.0     0.182020     0.794808     0.663540  Biso 1.000000     N
    N   1.0     0.682031     0.794805     0.663537  Biso 1.000000     N
    N   1.0     0.320133     0.308436     0.174823  Biso 1.000000     N
    N   1.0     0.820145     0.308437     0.174824  Biso 1.000000     N
    N   1.0     0.317994     0.205172     0.336439  Biso 1.000000     N
    N   1.0     0.818008     0.205174     0.336442  Biso 1.000000     N
    N   1.0     0.179878     0.691546     0.825161  Biso 1.000000     N
    N   1.0     0.679890     0.691546     0.825160  Biso 1.000000     N
    O   1.0     0.221684     0.086566     0.124114  Biso 1.000000     O
    O   1.0     0.721698     0.086566     0.124117  Biso 1.000000     O
    O   1.0     0.121587     0.198723     0.178726  Biso 1.000000     O
    O   1.0     0.621599     0.198721     0.178728  Biso 1.000000     O
    O   1.0     0.278328     0.913414     0.875867  Biso 1.000000     O
    O   1.0     0.778339     0.913414     0.875864  Biso 1.000000     O
    O   1.0     0.324329     0.646676     0.628693  Biso 1.000000     O
    O   1.0     0.824341     0.646674     0.628693  Biso 1.000000     O
    O   1.0     0.359052     0.539347     0.711018  Biso 1.000000     O
    O   1.0     0.859065     0.539346     0.711019  Biso 1.000000     O
    O   1.0     0.175682     0.353301     0.371291  Biso 1.000000     O
    O   1.0     0.675695     0.353303     0.371292  Biso 1.000000     O
    O   1.0     0.378426     0.801258     0.821255  Biso 1.000000     O
    O   1.0     0.878437     0.801258     0.821254  Biso 1.000000     O
    O   1.0     0.140959     0.460631     0.288967  Biso 1.000000     O
    O   1.0     0.640972     0.460632     0.288967  Biso 1.000000     O
   Zn   1.0     0.272961     0.733955     0.741791  Biso 1.000000    Zn
   Zn   1.0     0.772973     0.733955     0.741790  Biso 1.000000    Zn
   Zn   1.0     0.227051     0.266024     0.258191  Biso 1.000000    Zn
   Zn   1.0     0.727063     0.266025     0.258192  Biso 1.000000    Zn
