#======================================================================

# CRYSTAL DATA

#----------------------------------------------------------------------

data_VESTA_phase_1


_pd_phase_name                         MOF
_cell_length_a                         14.63100
_cell_length_b                         14.87300
_cell_length_c                         15.06000
_cell_angle_alpha                      97.73900
_cell_angle_beta                       90.00400
_cell_angle_gamma                      89.91400
_symmetry_space_group_name_H-M         "P 1"
_symmetry_Int_Tables_number            1

loop_
_symmetry_equiv_pos_as_xyz
   "x, y, z"

loop_
   _atom_site_label
   _atom_site_occupancy
   _atom_site_fract_x
   _atom_site_fract_y
   _atom_site_fract_z
   _atom_site_adp_type
   _atom_site_B_iso_or_equiv
   _atom_site_type_symbol
    H   1.0     0.240545     0.256592     0.445720  Biso 1.000000     H
    H   1.0     0.740553     0.256599     0.445716  Biso 1.000000     H
    H   1.0     0.378753     0.210072     0.524091  Biso 1.000000     H
    H   1.0     0.878763     0.210073     0.524081  Biso 1.000000     H
    H   1.0     0.471390     0.071178     0.268521  Biso 1.000000     H
    H   1.0     0.971375     0.071161     0.268510  Biso 1.000000     H
    H   1.0     0.325682     0.116949     0.203382  Biso 1.000000     H
    H   1.0     0.825666     0.116939     0.203378  Biso 1.000000     H
    H   1.0     0.018001     0.128246     0.523067  Biso 1.000000     H
    H   1.0     0.517981     0.128254     0.523083  Biso 1.000000     H
    H   1.0     0.092983     0.044417     0.339297  Biso 1.000000     H
    H   1.0     0.592972     0.044432     0.339314  Biso 1.000000     H
    H   1.0     0.133174     0.089463     0.593701  Biso 1.000000     H
    H   1.0     0.633161     0.089478     0.593719  Biso 1.000000     H
    H   1.0     0.231082     0.966321     0.335269  Biso 1.000000     H
    H   1.0     0.731068     0.966334     0.335287  Biso 1.000000     H
    H   1.0     0.165976     0.961979    -0.006405  Biso 1.000000     H
    H   1.0     0.665968     0.961981    -0.006408  Biso 1.000000     H
    H   1.0     0.445517     0.133297     0.103516  Biso 1.000000     H
    H   1.0     0.945510     0.133300     0.103513  Biso 1.000000     H
    H   1.0     0.241132     0.243340     0.053260  Biso 1.000000     H
    H   1.0     0.741123     0.243341     0.053260  Biso 1.000000     H
    H   1.0     0.379385     0.289814     0.975178  Biso 1.000000     H
    H   1.0     0.879376     0.289816     0.975178  Biso 1.000000     H
    H   1.0     0.471428     0.428228     0.231016  Biso 1.000000     H
    H   1.0     0.971419     0.428229     0.231017  Biso 1.000000     H
    H   1.0     0.325640     0.382613     0.295876  Biso 1.000000     H
    H   1.0     0.825631     0.382613     0.295877  Biso 1.000000     H
    H   1.0     0.018408     0.371595     0.976467  Biso 1.000000     H
    H   1.0     0.518400     0.371593     0.976465  Biso 1.000000     H
    H   1.0     0.092885     0.455341     0.160358  Biso 1.000000     H
    H   1.0     0.592875     0.455343     0.160356  Biso 1.000000     H
    H   1.0     0.133598     0.410597     0.906013  Biso 1.000000     H
    H   1.0     0.633588     0.410599     0.906011  Biso 1.000000     H
    H   1.0     0.230716     0.533434     0.164696  Biso 1.000000     H
    H   1.0     0.730707     0.533434     0.164694  Biso 1.000000     H
    H   1.0     0.165909     0.537690     0.506207  Biso 1.000000     H
    H   1.0     0.665899     0.537700     0.506196  Biso 1.000000     H
    H   1.0     0.445490     0.367000     0.396303  Biso 1.000000     H
    H   1.0     0.945482     0.366994     0.396312  Biso 1.000000     H
    H   1.0     0.259446     0.743385     0.554286  Biso 1.000000     H
    H   1.0     0.759454     0.743392     0.554283  Biso 1.000000     H
    H   1.0     0.121239     0.789913     0.475919  Biso 1.000000     H
    H   1.0     0.621250     0.789916     0.475908  Biso 1.000000     H
    H   1.0     0.028620     0.928820     0.731490  Biso 1.000000     H
    H   1.0     0.528605     0.928804     0.731478  Biso 1.000000     H
    H   1.0     0.174327     0.883041     0.796624  Biso 1.000000     H
    H   1.0     0.674311     0.883031     0.796620  Biso 1.000000     H
    H   1.0     0.482022     0.871736     0.476915  Biso 1.000000     H
    H   1.0     0.982001     0.871742     0.476931  Biso 1.000000     H
    H   1.0     0.407025     0.955548     0.660684  Biso 1.000000     H
    H   1.0     0.907014     0.955563     0.660702  Biso 1.000000     H
    H   1.0     0.366838     0.910506     0.406280  Biso 1.000000     H
    H   1.0     0.866824     0.910520     0.406298  Biso 1.000000     H
    H   1.0     0.268930     0.033649     0.664711  Biso 1.000000     H
    H   1.0     0.768917     0.033664     0.664730  Biso 1.000000     H
    H   1.0     0.334024     0.038008     0.000000  Biso 1.000000     H
    H   1.0     0.834017     0.038011     0.000000  Biso 1.000000     H
    H   1.0     0.054483     0.866690     0.896486  Biso 1.000000     H
    H   1.0     0.554475     0.866693     0.896482  Biso 1.000000     H
    H   1.0     0.258871     0.756643     0.946745  Biso 1.000000     H
    H   1.0     0.758863     0.756644     0.946746  Biso 1.000000     H
    H   1.0     0.120620     0.710165     0.024828  Biso 1.000000     H
    H   1.0     0.620611     0.710167     0.024830  Biso 1.000000     H
    H   1.0     0.028581     0.571745     0.768991  Biso 1.000000     H
    H   1.0     0.528570     0.571749     0.768992  Biso 1.000000     H
    H   1.0     0.174367     0.617364     0.704131  Biso 1.000000     H
    H   1.0     0.674357     0.617367     0.704132  Biso 1.000000     H
    H   1.0     0.481596     0.628386     0.023541  Biso 1.000000     H
    H   1.0     0.981589     0.628382     0.023540  Biso 1.000000     H
    H   1.0     0.407123     0.544636     0.839650  Biso 1.000000     H
    H   1.0     0.907114     0.544638     0.839647  Biso 1.000000     H
    H   1.0     0.366409     0.589380     0.093994  Biso 1.000000     H
    H   1.0     0.866401     0.589380     0.093992  Biso 1.000000     H
    H   1.0     0.269292     0.466543     0.835312  Biso 1.000000     H
    H   1.0     0.769282     0.466545     0.835310  Biso 1.000000     H
    H   1.0     0.334097     0.462285     0.493810  Biso 1.000000     H
    H   1.0     0.834086     0.462293     0.493803  Biso 1.000000     H
    H   1.0     0.054513     0.632989     0.603698  Biso 1.000000     H
    H   1.0     0.554505     0.632985     0.603704  Biso 1.000000     H
    C   1.0     0.292382     0.213518     0.409801  Biso 1.000000     C
    C   1.0     0.792384     0.213519     0.409797  Biso 1.000000     C
    C   1.0     0.370356     0.188201     0.452540  Biso 1.000000     C
    C   1.0     0.870360     0.188199     0.452531  Biso 1.000000     C
    C   1.0     0.438526     0.135719     0.403956  Biso 1.000000     C
    C   1.0     0.938524     0.135711     0.403944  Biso 1.000000     C
    C   1.0     0.422034     0.110496     0.311776  Biso 1.000000     C
    C   1.0     0.922024     0.110484     0.311766  Biso 1.000000     C
    C   1.0     0.341865     0.136777     0.273958  Biso 1.000000     C
    C   1.0     0.841854     0.136769     0.273952  Biso 1.000000     C
    C   1.0     0.019135     0.108960     0.450450  Biso 1.000000     C
    C   1.0     0.519119     0.108970     0.450466  Biso 1.000000     C
    C   1.0     0.091843     0.062261     0.412156  Biso 1.000000     C
    C   1.0     0.591829     0.062274     0.412173  Biso 1.000000     C
    C   1.0     0.171050     0.032060     0.458390  Biso 1.000000     C
    C   1.0     0.671037     0.032074     0.458408  Biso 1.000000     C
    C   1.0     0.184143     0.050595     0.551904  Biso 1.000000     C
    C   1.0     0.684129     0.050609     0.551922  Biso 1.000000     C
    C   1.0     0.239108     0.980607     0.407843  Biso 1.000000     C
    C   1.0     0.739094     0.980621     0.407861  Biso 1.000000     C
    C   1.0     0.129331     0.108973     0.115466  Biso 1.000000     C
    C   1.0     0.629323     0.108973     0.115466  Biso 1.000000     C
    C   1.0     0.062173     0.052943     0.055905  Biso 1.000000     C
    C   1.0     0.562165     0.052942     0.055906  Biso 1.000000     C
    C   1.0     0.093238     0.977962    -0.003171  Biso 1.000000     C
    C   1.0     0.593230     0.977963    -0.003173  Biso 1.000000     C
    C   1.0     0.468611     0.074416     0.058212  Biso 1.000000     C
    C   1.0     0.968603     0.074417     0.058211  Biso 1.000000     C
    C   1.0     0.292836     0.286345     0.089283  Biso 1.000000     C
    C   1.0     0.792827     0.286346     0.089284  Biso 1.000000     C
    C   1.0     0.370837     0.311622     0.046706  Biso 1.000000     C
    C   1.0     0.870827     0.311623     0.046707  Biso 1.000000     C
    C   1.0     0.438827     0.364003     0.095451  Biso 1.000000     C
    C   1.0     0.938818     0.364004     0.095451  Biso 1.000000     C
    C   1.0     0.422170     0.389076     0.187636  Biso 1.000000     C
    C   1.0     0.922161     0.389077     0.187637  Biso 1.000000     C
    C   1.0     0.341972     0.362866     0.225303  Biso 1.000000     C
    C   1.0     0.841963     0.362866     0.225304  Biso 1.000000     C
    C   1.0     0.019406     0.390815     0.049074  Biso 1.000000     C
    C   1.0     0.519397     0.390814     0.049072  Biso 1.000000     C
    C   1.0     0.091907     0.437541     0.087493  Biso 1.000000     C
    C   1.0     0.591898     0.437542     0.087491  Biso 1.000000     C
    C   1.0     0.171080     0.467840     0.041419  Biso 1.000000     C
    C   1.0     0.671071     0.467841     0.041416  Biso 1.000000     C
    C   1.0     0.184378     0.449435     0.947940  Biso 1.000000     C
    C   1.0     0.684369     0.449436     0.947938  Biso 1.000000     C
    C   1.0     0.238900     0.519236     0.092130  Biso 1.000000     C
    C   1.0     0.738891     0.519236     0.092128  Biso 1.000000     C
    C   1.0     0.129428     0.391035     0.384088  Biso 1.000000     C
    C   1.0     0.629420     0.391040     0.384084  Biso 1.000000     C
    C   1.0     0.062184     0.447013     0.443870  Biso 1.000000     C
    C   1.0     0.562173     0.447026     0.443854  Biso 1.000000     C
    C   1.0     0.093192     0.521824     0.503059  Biso 1.000000     C
    C   1.0     0.593183     0.521826     0.503057  Biso 1.000000     C
    C   1.0     0.468635     0.425745     0.441672  Biso 1.000000     C
    C   1.0     0.968626     0.425746     0.441672  Biso 1.000000     C
    C   1.0     0.207614     0.786464     0.590205  Biso 1.000000     C
    C   1.0     0.707616     0.786466     0.590201  Biso 1.000000     C
    C   1.0     0.129640     0.811786     0.547469  Biso 1.000000     C
    C   1.0     0.629644     0.811785     0.547460  Biso 1.000000     C
    C   1.0     0.061474     0.864273     0.596055  Biso 1.000000     C
    C   1.0     0.561472     0.864265     0.596043  Biso 1.000000     C
    C   1.0     0.077971     0.889498     0.688234  Biso 1.000000     C
    C   1.0     0.577962     0.889487     0.688224  Biso 1.000000     C
    C   1.0     0.158140     0.863212     0.726049  Biso 1.000000     C
    C   1.0     0.658129     0.863204     0.726044  Biso 1.000000     C
    C   1.0     0.480881     0.891016     0.549532  Biso 1.000000     C
    C   1.0     0.980864     0.891026     0.549548  Biso 1.000000     C
    C   1.0     0.408169     0.937709     0.587825  Biso 1.000000     C
    C   1.0     0.908156     0.937722     0.587843  Biso 1.000000     C
    C   1.0     0.328962     0.967910     0.541590  Biso 1.000000     C
    C   1.0     0.828948     0.967923     0.541608  Biso 1.000000     C
    C   1.0     0.315870     0.949375     0.448077  Biso 1.000000     C
    C   1.0     0.815855     0.949388     0.448095  Biso 1.000000     C
    C   1.0     0.260904     0.019362     0.592137  Biso 1.000000     C
    C   1.0     0.760890     0.019376     0.592155  Biso 1.000000     C
    C   1.0     0.370667     0.891010     0.884542  Biso 1.000000     C
    C   1.0     0.870658     0.891010     0.884542  Biso 1.000000     C
    C   1.0     0.437828     0.947047     0.944092  Biso 1.000000     C
    C   1.0     0.937819     0.947047     0.944093  Biso 1.000000     C
    C   1.0     0.406762     0.022026     0.000000  Biso 1.000000     C
    C   1.0     0.906754     0.022027     0.000000  Biso 1.000000     C
    C   1.0     0.031389     0.925572     0.941789  Biso 1.000000     C
    C   1.0     0.531381     0.925573     0.941787  Biso 1.000000     C
    C   1.0     0.207168     0.713636     0.910723  Biso 1.000000     C
    C   1.0     0.707159     0.713637     0.910724  Biso 1.000000     C
    C   1.0     0.129169     0.688357     0.953300  Biso 1.000000     C
    C   1.0     0.629159     0.688359     0.953301  Biso 1.000000     C
    C   1.0     0.061180     0.635974     0.904555  Biso 1.000000     C
    C   1.0     0.561170     0.635976     0.904557  Biso 1.000000     C
    C   1.0     0.077837     0.610899     0.812370  Biso 1.000000     C
    C   1.0     0.577827     0.610903     0.812371  Biso 1.000000     C
    C   1.0     0.158034     0.637112     0.774703  Biso 1.000000     C
    C   1.0     0.658024     0.637114     0.774704  Biso 1.000000     C
    C   1.0     0.480600     0.609165     0.950935  Biso 1.000000     C
    C   1.0     0.980592     0.609163     0.950933  Biso 1.000000     C
    C   1.0     0.408099     0.562437     0.912515  Biso 1.000000     C
    C   1.0     0.908091     0.562436     0.912513  Biso 1.000000     C
    C   1.0     0.328927     0.532138     0.958589  Biso 1.000000     C
    C   1.0     0.828918     0.532138     0.958587  Biso 1.000000     C
    C   1.0     0.315629     0.550543     0.052068  Biso 1.000000     C
    C   1.0     0.815620     0.550543     0.052066  Biso 1.000000     C
    C   1.0     0.261107     0.480742     0.907877  Biso 1.000000     C
    C   1.0     0.761098     0.480743     0.907875  Biso 1.000000     C
    C   1.0     0.370574     0.608946     0.615922  Biso 1.000000     C
    C   1.0     0.870566     0.608949     0.615920  Biso 1.000000     C
    C   1.0     0.437823     0.552955     0.556158  Biso 1.000000     C
    C   1.0     0.937812     0.552967     0.556144  Biso 1.000000     C
    C   1.0     0.406812     0.478161     0.496949  Biso 1.000000     C
    C   1.0     0.906803     0.478160     0.496950  Biso 1.000000     C
    C   1.0     0.031369     0.574238     0.558337  Biso 1.000000     C
    C   1.0     0.531360     0.574241     0.558334  Biso 1.000000     C
    N   1.0     0.277372     0.188384     0.321443  Biso 1.000000     N
    N   1.0     0.777367     0.188381     0.321440  Biso 1.000000     N
    N   1.0     0.277620     0.311438     0.177622  Biso 1.000000     N
    N   1.0     0.777610     0.311439     0.177623  Biso 1.000000     N
    N   1.0     0.222628     0.811600     0.678562  Biso 1.000000     N
    N   1.0     0.722624     0.811598     0.678559  Biso 1.000000     N
    N   1.0     0.222385     0.688542     0.822384  Biso 1.000000     N
    N   1.0     0.722375     0.688544     0.822385  Biso 1.000000     N
    O   1.0     0.093417     0.172166     0.173697  Biso 1.000000     O
    O   1.0     0.593409     0.172165     0.173698  Biso 1.000000     O
    O   1.0     0.213206     0.093835     0.107353  Biso 1.000000     O
    O   1.0     0.713197     0.093836     0.107350  Biso 1.000000     O
    O   1.0     0.093646     0.327962     0.325751  Biso 1.000000     O
    O   1.0     0.593639     0.327958     0.325756  Biso 1.000000     O
    O   1.0     0.213254     0.406213     0.392192  Biso 1.000000     O
    O   1.0     0.713247     0.406203     0.392203  Biso 1.000000     O
    O   1.0     0.406579     0.827820     0.826308  Biso 1.000000     O
    O   1.0     0.906571     0.827819     0.826309  Biso 1.000000     O
    O   1.0     0.286793     0.906148     0.892660  Biso 1.000000     O
    O   1.0     0.786784     0.906150     0.892658  Biso 1.000000     O
    O   1.0     0.406354     0.672020     0.674259  Biso 1.000000     O
    O   1.0     0.906347     0.672015     0.674264  Biso 1.000000     O
    O   1.0     0.286748     0.593775     0.607811  Biso 1.000000     O
    O   1.0     0.786741     0.593765     0.607823  Biso 1.000000     O
   Zn   1.0     0.179446     0.250049     0.249210  Biso 1.000000    Zn
   Zn   1.0     0.679439     0.250048     0.249212  Biso 1.000000    Zn
   Zn   1.0     0.320552     0.749934     0.750793  Biso 1.000000    Zn
   Zn   1.0     0.820544     0.749932     0.750795  Biso 1.000000    Zn
