#======================================================================

# CRYSTAL DATA

#----------------------------------------------------------------------

data_VESTA_phase_1


_pd_phase_name                         MOF
_cell_length_a                         15.24600
_cell_length_b                         13.91600
_cell_length_c                         14.28300
_cell_angle_alpha                      99.27100
_cell_angle_beta                       90.00000
_cell_angle_gamma                      90.00000
_symmetry_space_group_name_H-M         "P 1"
_symmetry_Int_Tables_number            1

loop_
_symmetry_equiv_pos_as_xyz
   "x, y, z"

loop_
   _atom_site_label
   _atom_site_occupancy
   _atom_site_fract_x
   _atom_site_fract_y
   _atom_site_fract_z
   _atom_site_adp_type
   _atom_site_B_iso_or_equiv
   _atom_site_type_symbol
    H   1.0     0.234069     0.289304     0.470284  Biso 1.000000     H
    H   1.0     0.715333     0.289307     0.470283  Biso 1.000000     H
    H   1.0     0.367247     0.241840     0.552158  Biso 1.000000     H
    H   1.0     0.848511     0.241841     0.552157  Biso 1.000000     H
    H   1.0     0.452996     0.083450     0.281508  Biso 1.000000     H
    H   1.0     0.934258     0.083450     0.281506  Biso 1.000000     H
    H   1.0     0.312727     0.130697     0.213645  Biso 1.000000     H
    H   1.0     0.793988     0.130696     0.213645  Biso 1.000000     H
    H   1.0     0.018656     0.153490     0.550453  Biso 1.000000     H
    H   1.0     0.499912     0.153493     0.550454  Biso 1.000000     H
    H   1.0     0.090058     0.057884     0.355917  Biso 1.000000     H
    H   1.0     0.571316     0.057887     0.355919  Biso 1.000000     H
    H   1.0     0.128206     0.114006     0.625268  Biso 1.000000     H
    H   1.0     0.609464     0.114008     0.625270  Biso 1.000000     H
    H   1.0     0.223862     0.000000     0.352135  Biso 1.000000     H
    H   1.0     0.705120     0.000000     0.352137  Biso 1.000000     H
    H   1.0     0.160205     0.000000     0.000000  Biso 1.000000     H
    H   1.0     0.641464     0.000000     0.000000  Biso 1.000000     H
    H   1.0     0.429458     0.145927     0.109218  Biso 1.000000     H
    H   1.0     0.910718     0.145930     0.109215  Biso 1.000000     H
    H   1.0     0.233999     0.261099     0.055869  Biso 1.000000     H
    H   1.0     0.715254     0.261100     0.055868  Biso 1.000000     H
    H   1.0     0.367487     0.340771     0.000000  Biso 1.000000     H
    H   1.0     0.848742     0.340772     0.000000  Biso 1.000000     H
    H   1.0     0.453208     0.466580     0.244577  Biso 1.000000     H
    H   1.0     0.934467     0.466578     0.244574  Biso 1.000000     H
    H   1.0     0.312947     0.419441     0.312515  Biso 1.000000     H
    H   1.0     0.794208     0.419438     0.312515  Biso 1.000000     H
    H   1.0     0.019073     0.428998     0.000000  Biso 1.000000     H
    H   1.0     0.500336     0.428999     0.000000  Biso 1.000000     H
    H   1.0     0.090027     0.492152     0.170253  Biso 1.000000     H
    H   1.0     0.571288     0.492155     0.170257  Biso 1.000000     H
    H   1.0     0.128925     0.468719     0.954088  Biso 1.000000     H
    H   1.0     0.610187     0.468721     0.954091  Biso 1.000000     H
    H   1.0     0.223021     0.575084     0.174425  Biso 1.000000     H
    H   1.0     0.704282     0.575086     0.174428  Biso 1.000000     H
    H   1.0     0.159800     0.590707     0.533976  Biso 1.000000     H
    H   1.0     0.641058     0.590710     0.533974  Biso 1.000000     H
    H   1.0     0.429642     0.404983     0.416907  Biso 1.000000     H
    H   1.0     0.910900     0.404982     0.416909  Biso 1.000000     H
    H   1.0     0.248135     0.811598     0.582888  Biso 1.000000     H
    H   1.0     0.729398     0.811601     0.582887  Biso 1.000000     H
    H   1.0     0.114957     0.859065     0.501013  Biso 1.000000     H
    H   1.0     0.596221     0.859066     0.501012  Biso 1.000000     H
    H   1.0     0.029202     0.000000     0.771664  Biso 1.000000     H
    H   1.0     0.510464     0.000000     0.771663  Biso 1.000000     H
    H   1.0     0.169471     0.970200     0.839529  Biso 1.000000     H
    H   1.0     0.650733     0.970200     0.839528  Biso 1.000000     H
    H   1.0     0.463557     0.947413     0.502713  Biso 1.000000     H
    H   1.0     0.944813     0.947415     0.502714  Biso 1.000000     H
    H   1.0     0.392145     0.000000     0.697248  Biso 1.000000     H
    H   1.0     0.873403     0.000000     0.697249  Biso 1.000000     H
    H   1.0     0.354001     0.986893     0.427894  Biso 1.000000     H
    H   1.0     0.835259     0.986895     0.427896  Biso 1.000000     H
    H   1.0     0.258344     0.057223     0.701027  Biso 1.000000     H
    H   1.0     0.739603     0.057226     0.701029  Biso 1.000000     H
    H   1.0     0.322006     0.040677     0.007237  Biso 1.000000     H
    H   1.0     0.803265     0.040678     0.007237  Biso 1.000000     H
    H   1.0     0.052751     0.954973     0.943957  Biso 1.000000     H
    H   1.0     0.534011     0.954976     0.943954  Biso 1.000000     H
    H   1.0     0.248209     0.839808     0.997314  Biso 1.000000     H
    H   1.0     0.729465     0.839808     0.997314  Biso 1.000000     H
    H   1.0     0.114723     0.760133     0.026101  Biso 1.000000     H
    H   1.0     0.595977     0.760134     0.026100  Biso 1.000000     H
    H   1.0     0.028999     0.634332     0.808603  Biso 1.000000     H
    H   1.0     0.510259     0.634329     0.808601  Biso 1.000000     H
    H   1.0     0.169256     0.681477     0.740663  Biso 1.000000     H
    H   1.0     0.650517     0.681475     0.740664  Biso 1.000000     H
    H   1.0     0.463130     0.671903     0.024405  Biso 1.000000     H
    H   1.0     0.944393     0.671903     0.024409  Biso 1.000000     H
    H   1.0     0.392175     0.608748     0.882924  Biso 1.000000     H
    H   1.0     0.873435     0.608752     0.882928  Biso 1.000000     H
    H   1.0     0.353276     0.632183     0.099091  Biso 1.000000     H
    H   1.0     0.834538     0.632185     0.099094  Biso 1.000000     H
    H   1.0     0.259181     0.525817     0.878754  Biso 1.000000     H
    H   1.0     0.740443     0.525819     0.878757  Biso 1.000000     H
    H   1.0     0.322395     0.510180     0.519203  Biso 1.000000     H
    H   1.0     0.803653     0.510184     0.519200  Biso 1.000000     H
    H   1.0     0.052554     0.695910     0.636267  Biso 1.000000     H
    H   1.0     0.533812     0.695908     0.636270  Biso 1.000000     H
    C   1.0     0.283185     0.241572     0.432032  Biso 1.000000     C
    C   1.0     0.764447     0.241572     0.432031  Biso 1.000000     C
    C   1.0     0.358334     0.215773     0.476627  Biso 1.000000     C
    C   1.0     0.839598     0.215775     0.476626  Biso 1.000000     C
    C   1.0     0.423065     0.157602     0.424829  Biso 1.000000     C
    C   1.0     0.904326     0.157601     0.424828  Biso 1.000000     C
    C   1.0     0.406226     0.127336     0.327527  Biso 1.000000     C
    C   1.0     0.887488     0.127337     0.327525  Biso 1.000000     C
    C   1.0     0.329009     0.154355     0.288126  Biso 1.000000     C
    C   1.0     0.810270     0.154354     0.288125  Biso 1.000000     C
    C   1.0     0.019399     0.130470     0.473613  Biso 1.000000     C
    C   1.0     0.500656     0.130472     0.473614  Biso 1.000000     C
    C   1.0     0.089047     0.079343     0.433027  Biso 1.000000     C
    C   1.0     0.570304     0.079345     0.433029  Biso 1.000000     C
    C   1.0     0.165061     0.048786     0.482185  Biso 1.000000     C
    C   1.0     0.646318     0.048788     0.482187  Biso 1.000000     C
    C   1.0     0.177344     0.071483     0.581225  Biso 1.000000     C
    C   1.0     0.658601     0.071485     0.581226  Biso 1.000000     C
    C   1.0     0.231270     0.000000     0.428991  Biso 1.000000     C
    C   1.0     0.712527     0.000000     0.428993  Biso 1.000000     C
    C   1.0     0.124660     0.120412     0.121078  Biso 1.000000     C
    C   1.0     0.605918     0.120410     0.121082  Biso 1.000000     C
    C   1.0     0.059883     0.058486     0.058678  Biso 1.000000     C
    C   1.0     0.541141     0.058485     0.058680  Biso 1.000000     C
    C   1.0     0.090091     0.000000    -0.003636  Biso 1.000000     C
    C   1.0     0.571350     0.000000    -0.003636  Biso 1.000000     C
    C   1.0     0.451391     0.081463     0.061446  Biso 1.000000     C
    C   1.0     0.932650     0.081463     0.061445  Biso 1.000000     C
    C   1.0     0.283190     0.308736     0.094109  Biso 1.000000     C
    C   1.0     0.764446     0.308735     0.094109  Biso 1.000000     C
    C   1.0     0.358328     0.334506     0.049465  Biso 1.000000     C
    C   1.0     0.839583     0.334506     0.049464  Biso 1.000000     C
    C   1.0     0.423137     0.392567     0.101243  Biso 1.000000     C
    C   1.0     0.904394     0.392565     0.101240  Biso 1.000000     C
    C   1.0     0.406372     0.422788     0.198568  Biso 1.000000     C
    C   1.0     0.887631     0.422787     0.198566  Biso 1.000000     C
    C   1.0     0.329168     0.395806     0.238014  Biso 1.000000     C
    C   1.0     0.810428     0.395803     0.238014  Biso 1.000000     C
    C   1.0     0.019474     0.419693     0.052454  Biso 1.000000     C
    C   1.0     0.500736     0.419694     0.052457  Biso 1.000000     C
    C   1.0     0.089099     0.470788     0.093133  Biso 1.000000     C
    C   1.0     0.570359     0.470790     0.093136  Biso 1.000000     C
    C   1.0     0.165164     0.501485     0.044163  Biso 1.000000     C
    C   1.0     0.646426     0.501486     0.044167  Biso 1.000000     C
    C   1.0     0.177950     0.511239     0.998306  Biso 1.000000     C
    C   1.0     0.659212     0.511241     0.998309  Biso 1.000000     C
    C   1.0     0.230598     0.557692     0.097579  Biso 1.000000     C
    C   1.0     0.711860     0.557693     0.097582  Biso 1.000000     C
    C   1.0     0.124909     0.430110     0.405128  Biso 1.000000     C
    C   1.0     0.606168     0.430117     0.405122  Biso 1.000000     C
    C   1.0     0.060246     0.491965     0.467751  Biso 1.000000     C
    C   1.0     0.541505     0.491958     0.467757  Biso 1.000000     C
    C   1.0     0.089971     0.573784     0.530319  Biso 1.000000     C
    C   1.0     0.571229     0.573782     0.530318  Biso 1.000000     C
    C   1.0     0.451701     0.469246     0.464880  Biso 1.000000     C
    C   1.0     0.932961     0.469247     0.464878  Biso 1.000000     C
    C   1.0     0.199017     0.859329     0.621139  Biso 1.000000     C
    C   1.0     0.680279     0.859329     0.621139  Biso 1.000000     C
    C   1.0     0.123869     0.885131     0.576544  Biso 1.000000     C
    C   1.0     0.605132     0.885134     0.576543  Biso 1.000000     C
    C   1.0     0.059138     0.943300     0.628342  Biso 1.000000     C
    C   1.0     0.540399     0.943299     0.628341  Biso 1.000000     C
    C   1.0     0.075975     0.973564     0.725645  Biso 1.000000     C
    C   1.0     0.557237     0.973565     0.725643  Biso 1.000000     C
    C   1.0     0.153190     0.946543     0.765048  Biso 1.000000     C
    C   1.0     0.634451     0.946542     0.765047  Biso 1.000000     C
    C   1.0     0.462810     0.970432     0.579553  Biso 1.000000     C
    C   1.0     0.944066     0.970433     0.579555  Biso 1.000000     C
    C   1.0     0.393160     0.000000     0.620137  Biso 1.000000     C
    C   1.0     0.874417     0.000000     0.620139  Biso 1.000000     C
    C   1.0     0.317147     0.000000     0.570977  Biso 1.000000     C
    C   1.0     0.798404     0.000000     0.570979  Biso 1.000000     C
    C   1.0     0.304863     0.000000     0.471938  Biso 1.000000     C
    C   1.0     0.786121     0.000000     0.471939  Biso 1.000000     C
    C   1.0     0.250937     0.039683     0.624171  Biso 1.000000     C
    C   1.0     0.732195     0.039685     0.624173  Biso 1.000000     C
    C   1.0     0.357554     0.980522     0.932058  Biso 1.000000     C
    C   1.0     0.838813     0.980520     0.932061  Biso 1.000000     C
    C   1.0     0.422325     0.000000     0.994516  Biso 1.000000     C
    C   1.0     0.903583     0.000000     0.994516  Biso 1.000000     C
    C   1.0     0.391804     0.023583     0.003636  Biso 1.000000     C
    C   1.0     0.873062     0.023585     0.003635  Biso 1.000000     C
    C   1.0     0.030821     0.000000     0.991719  Biso 1.000000     C
    C   1.0     0.512081     0.000000     0.991719  Biso 1.000000     C
    C   1.0     0.199018     0.792174     0.959070  Biso 1.000000     C
    C   1.0     0.680274     0.792174     0.959070  Biso 1.000000     C
    C   1.0     0.123882     0.766399     0.000000  Biso 1.000000     C
    C   1.0     0.605137     0.766399     0.000000  Biso 1.000000     C
    C   1.0     0.059070     0.708341     0.951939  Biso 1.000000     C
    C   1.0     0.540327     0.708340     0.951937  Biso 1.000000     C
    C   1.0     0.075836     0.678122     0.854613  Biso 1.000000     C
    C   1.0     0.557094     0.678121     0.854611  Biso 1.000000     C
    C   1.0     0.153038     0.705111     0.815166  Biso 1.000000     C
    C   1.0     0.634297     0.705109     0.815165  Biso 1.000000     C
    C   1.0     0.462729     0.681209     0.000000  Biso 1.000000     C
    C   1.0     0.943991     0.681210     0.000000  Biso 1.000000     C
    C   1.0     0.393105     0.630114     0.960045  Biso 1.000000     C
    C   1.0     0.874365     0.630116     0.960048  Biso 1.000000     C
    C   1.0     0.317038     0.599418     0.000000  Biso 1.000000     C
    C   1.0     0.798300     0.599419     0.000000  Biso 1.000000     C
    C   1.0     0.304252     0.589664     0.054873  Biso 1.000000     C
    C   1.0     0.785514     0.589665     0.054876  Biso 1.000000     C
    C   1.0     0.251604     0.543211     0.955600  Biso 1.000000     C
    C   1.0     0.732865     0.543212     0.955603  Biso 1.000000     C
    C   1.0     0.357287     0.670809     0.648026  Biso 1.000000     C
    C   1.0     0.838546     0.670811     0.648025  Biso 1.000000     C
    C   1.0     0.421953     0.608911     0.585446  Biso 1.000000     C
    C   1.0     0.903211     0.608910     0.585446  Biso 1.000000     C
    C   1.0     0.392223     0.527115     0.522851  Biso 1.000000     C
    C   1.0     0.873482     0.527113     0.522851  Biso 1.000000     C
    C   1.0     0.030492     0.631650     0.588291  Biso 1.000000     C
    C   1.0     0.511751     0.631651     0.588289  Biso 1.000000     C
    N   1.0     0.267781     0.211496     0.338768  Biso 1.000000     N
    N   1.0     0.749043     0.211497     0.338767  Biso 1.000000     N
    N   1.0     0.267871     0.338755     0.187397  Biso 1.000000     N
    N   1.0     0.749129     0.338755     0.187397  Biso 1.000000     N
    N   1.0     0.214419     0.889406     0.714404  Biso 1.000000     N
    N   1.0     0.695681     0.889407     0.714403  Biso 1.000000     N
    N   1.0     0.214338     0.762158     0.865782  Biso 1.000000     N
    N   1.0     0.695596     0.762157     0.865782  Biso 1.000000     N
    O   1.0     0.090548     0.189513     0.183092  Biso 1.000000     O
    O   1.0     0.571806     0.189509     0.183098  Biso 1.000000     O
    O   1.0     0.205084     0.104065     0.111683  Biso 1.000000     O
    O   1.0     0.686342     0.104065     0.111683  Biso 1.000000     O
    O   1.0     0.090696     0.361296     0.342853  Biso 1.000000     O
    O   1.0     0.571956     0.361293     0.342857  Biso 1.000000     O
    O   1.0     0.205363     0.446160     0.414728  Biso 1.000000     O
    O   1.0     0.686622     0.446158     0.414733  Biso 1.000000     O
    O   1.0     0.391667     0.911406     0.870059  Biso 1.000000     O
    O   1.0     0.872925     0.911403     0.870063  Biso 1.000000     O
    O   1.0     0.277128     0.996833     0.941489  Biso 1.000000     O
    O   1.0     0.758386     0.996834     0.941489  Biso 1.000000     O
    O   1.0     0.391509     0.739604     0.710316  Biso 1.000000     O
    O   1.0     0.872769     0.739604     0.710318  Biso 1.000000     O
    O   1.0     0.276834     0.654748     0.638447  Biso 1.000000     O
    O   1.0     0.758093     0.654745     0.638452  Biso 1.000000     O
   Zn   1.0     0.173185     0.275210     0.263141  Biso 1.000000    Zn
   Zn   1.0     0.654444     0.275210     0.263142  Biso 1.000000    Zn
   Zn   1.0     0.309027     0.825704     0.790023  Biso 1.000000    Zn
   Zn   1.0     0.790286     0.825704     0.790024  Biso 1.000000    Zn
