#======================================================================

# CRYSTAL DATA

#----------------------------------------------------------------------

data_VESTA_phase_1


_pd_phase_name                         MOF
_cell_length_a                         14.62700
_cell_length_b                         19.28600
_cell_length_c                         21.74500
_cell_angle_alpha                      90.00500
_cell_angle_beta                       90.01400
_cell_angle_gamma                      91.65100
_symmetry_space_group_name_H-M         "P 1"
_symmetry_Int_Tables_number            1

loop_
_symmetry_equiv_pos_as_xyz
   "x, y, z"

loop_
   _atom_site_label
   _atom_site_occupancy
   _atom_site_fract_x
   _atom_site_fract_y
   _atom_site_fract_z
   _atom_site_adp_type
   _atom_site_B_iso_or_equiv
   _atom_site_type_symbol
    H   1.0     0.329575     0.727008     0.616187  Biso 1.000000     H
    H   1.0     0.829362     0.727097     0.615912  Biso 1.000000     H
    H   1.0     0.380686     0.722958     0.507050  Biso 1.000000     H
    H   1.0     0.880127     0.723057     0.506708  Biso 1.000000     H
    H   1.0     0.106446     0.761616     0.446867  Biso 1.000000     H
    H   1.0     0.605761     0.761951     0.446927  Biso 1.000000     H
    H   1.0     0.054210     0.764283     0.555549  Biso 1.000000     H
    H   1.0     0.553836     0.764489     0.555689  Biso 1.000000     H
    H   1.0     0.478500     0.635688     0.621807  Biso 1.000000     H
    H   1.0     0.978033     0.636622     0.621417  Biso 1.000000     H
    H   1.0     0.033624     0.527048     0.577034  Biso 1.000000     H
    H   1.0     0.534359     0.525543     0.578652  Biso 1.000000     H
    H   1.0     0.381618     0.409548     0.715270  Biso 1.000000     H
    H   1.0     0.882170     0.409369     0.713165  Biso 1.000000     H
    H   1.0     0.324825     0.518677     0.758682  Biso 1.000000     H
    H   1.0     0.825475     0.517946     0.757764  Biso 1.000000     H
    H   1.0     0.482201     0.855031     0.621739  Biso 1.000000     H
    H   1.0     0.983492     0.855749     0.620315  Biso 1.000000     H
    H   1.0     0.044508     0.964141     0.572121  Biso 1.000000     H
    H   1.0     0.542917     0.962938     0.572526  Biso 1.000000     H
    H   1.0     0.405010     0.085139     0.707945  Biso 1.000000     H
    H   1.0     0.904819     0.085011     0.707645  Biso 1.000000     H
    H   1.0     0.343750     0.978026     0.757365  Biso 1.000000     H
    H   1.0     0.843260     0.977417     0.756062  Biso 1.000000     H
    H   1.0     0.213007     0.061782     0.592413  Biso 1.000000     H
    H   1.0     0.712922     0.061906     0.592398  Biso 1.000000     H
    H   1.0     0.325031     0.050110     0.561185  Biso 1.000000     H
    H   1.0     0.824975     0.050247     0.561205  Biso 1.000000     H
    H   1.0     0.354852     0.940019     0.511953  Biso 1.000000     H
    H   1.0     0.854840     0.940158     0.511973  Biso 1.000000     H
    H   1.0     0.263468     0.876110     0.509453  Biso 1.000000     H
    H   1.0     0.763458     0.876254     0.509432  Biso 1.000000     H
    H   1.0     0.125280     0.524161     0.483655  Biso 1.000000     H
    H   1.0     0.622009     0.524764     0.482306  Biso 1.000000     H
    H   1.0     0.174454     0.608365     0.500901  Biso 1.000000     H
    H   1.0     0.671333     0.608881     0.499709  Biso 1.000000     H
    H   1.0     0.266852     0.442933     0.598568  Biso 1.000000     H
    H   1.0     0.763802     0.443555     0.597419  Biso 1.000000     H
    H   1.0     0.179533     0.425944     0.542271  Biso 1.000000     H
    H   1.0     0.676451     0.426229     0.541234  Biso 1.000000     H
    H   1.0     0.420595     0.272668     0.115355  Biso 1.000000     H
    H   1.0     0.920632     0.272797     0.115481  Biso 1.000000     H
    H   1.0     0.369432     0.276601     0.000000  Biso 1.000000     H
    H   1.0     0.869413     0.276709     0.000000  Biso 1.000000     H
    H   1.0     0.143337     0.237122     0.946169  Biso 1.000000     H
    H   1.0     0.643453     0.237180     0.946085  Biso 1.000000     H
    H   1.0     0.195686     0.234612     0.054853  Biso 1.000000     H
    H   1.0     0.695751     0.234660     0.054779  Biso 1.000000     H
    H   1.0     0.271395     0.363902     0.120644  Biso 1.000000     H
    H   1.0     0.771581     0.363998     0.120600  Biso 1.000000     H
    H   1.0     0.215704     0.474080     0.077415  Biso 1.000000     H
    H   1.0     0.715933     0.474186     0.077372  Biso 1.000000     H
    H   1.0     0.368647     0.590051     0.214006  Biso 1.000000     H
    H   1.0     0.868949     0.590128     0.213942  Biso 1.000000     H
    H   1.0     0.425272     0.480912     0.257490  Biso 1.000000     H
    H   1.0     0.925523     0.480965     0.257447  Biso 1.000000     H
    H   1.0     0.266725     0.144381     0.121210  Biso 1.000000     H
    H   1.0     0.766767     0.144394     0.121195  Biso 1.000000     H
    H   1.0     0.205418     0.036176     0.072753  Biso 1.000000     H
    H   1.0     0.705486     0.036191     0.072730  Biso 1.000000     H
    H   1.0     0.344648     0.914755     0.208113  Biso 1.000000     H
    H   1.0     0.844673     0.914771     0.208112  Biso 1.000000     H
    H   1.0     0.406456     0.022144     0.256812  Biso 1.000000     H
    H   1.0     0.906451     0.022162     0.256825  Biso 1.000000     H
    H   1.0     0.033591     0.935868     0.091902  Biso 1.000000     H
    H   1.0     0.533689     0.936103     0.092148  Biso 1.000000     H
    H   1.0     0.423000     0.947336     0.058699  Biso 1.000000     H
    H   1.0     0.922943     0.947211     0.058466  Biso 1.000000     H
    H   1.0     0.393442     0.058327     0.010916  Biso 1.000000     H
    H   1.0     0.893463     0.058298     0.010855  Biso 1.000000     H
    H   1.0     0.483646     0.123205     0.011628  Biso 1.000000     H
    H   1.0     0.983695     0.123150     0.011669  Biso 1.000000     H
    H   1.0     0.126157     0.475663     0.981908  Biso 1.000000     H
    H   1.0     0.626181     0.475679     0.981895  Biso 1.000000     H
    H   1.0     0.077674     0.391587     0.000370  Biso 1.000000     H
    H   1.0     0.577756     0.391566     0.000285  Biso 1.000000     H
    H   1.0     0.486558     0.557611     0.097670  Biso 1.000000     H
    H   1.0     0.986584     0.557778     0.097586  Biso 1.000000     H
    H   1.0     0.072580     0.574578     0.040413  Biso 1.000000     H
    H   1.0     0.572569     0.574505     0.040508  Biso 1.000000     H
    H   1.0     0.170555     0.272795     0.384169  Biso 1.000000     H
    H   1.0     0.670450     0.272922     0.383984  Biso 1.000000     H
    H   1.0     0.119718     0.276771     0.493363  Biso 1.000000     H
    H   1.0     0.619358     0.276894     0.493124  Biso 1.000000     H
    H   1.0     0.394135     0.238192     0.553213  Biso 1.000000     H
    H   1.0     0.893656     0.238384     0.553268  Biso 1.000000     H
    H   1.0     0.446131     0.235722     0.444465  Biso 1.000000     H
    H   1.0     0.945892     0.235865     0.444580  Biso 1.000000     H
    H   1.0     0.022046     0.363406     0.378615  Biso 1.000000     H
    H   1.0     0.521656     0.364528     0.378259  Biso 1.000000     H
    H   1.0     0.465694     0.474626     0.421442  Biso 1.000000     H
    H   1.0     0.966483     0.472971     0.423030  Biso 1.000000     H
    H   1.0     0.117875     0.590676     0.286885  Biso 1.000000     H
    H   1.0     0.618286     0.590738     0.284828  Biso 1.000000     H
    H   1.0     0.174548     0.482107     0.242256  Biso 1.000000     H
    H   1.0     0.675139     0.481648     0.241363  Biso 1.000000     H
    H   1.0     0.016735     0.144226     0.379795  Biso 1.000000     H
    H   1.0     0.516758     0.144247     0.379777  Biso 1.000000     H
    H   1.0     0.455750     0.035821     0.427946  Biso 1.000000     H
    H   1.0     0.955759     0.035821     0.428002  Biso 1.000000     H
    H   1.0     0.095158     0.914977     0.292322  Biso 1.000000     H
    H   1.0     0.595195     0.915037     0.292232  Biso 1.000000     H
    H   1.0     0.156680     0.022577     0.243898  Biso 1.000000     H
    H   1.0     0.656731     0.022660     0.243853  Biso 1.000000     H
    H   1.0     0.286982     0.937805     0.407641  Biso 1.000000     H
    H   1.0     0.787040     0.937964     0.407634  Biso 1.000000     H
    H   1.0     0.174972     0.949498     0.438886  Biso 1.000000     H
    H   1.0     0.675008     0.949641     0.438845  Biso 1.000000     H
    H   1.0     0.145179     0.059600     0.488086  Biso 1.000000     H
    H   1.0     0.645160     0.059713     0.488059  Biso 1.000000     H
    H   1.0     0.236584     0.123482     0.490614  Biso 1.000000     H
    H   1.0     0.736538     0.123622     0.490606  Biso 1.000000     H
    H   1.0     0.378047     0.475231     0.517795  Biso 1.000000     H
    H   1.0     0.874767     0.475854     0.516535  Biso 1.000000     H
    H   1.0     0.328707     0.391120     0.500394  Biso 1.000000     H
    H   1.0     0.825620     0.391641     0.499287  Biso 1.000000     H
    H   1.0     0.236183     0.556473     0.402747  Biso 1.000000     H
    H   1.0     0.733254     0.557038     0.401557  Biso 1.000000     H
    H   1.0     0.323583     0.573778     0.458899  Biso 1.000000     H
    H   1.0     0.820534     0.574055     0.457876  Biso 1.000000     H
    H   1.0     0.079392     0.727148     0.884614  Biso 1.000000     H
    H   1.0     0.579480     0.726969     0.885013  Biso 1.000000     H
    H   1.0     0.130574     0.723228    -0.006234  Biso 1.000000     H
    H   1.0     0.630587     0.723164    -0.005825  Biso 1.000000     H
    H   1.0     0.356588     0.762827     0.054194  Biso 1.000000     H
    H   1.0     0.856645     0.762863     0.053891  Biso 1.000000     H
    H   1.0     0.304335     0.765229     0.945490  Biso 1.000000     H
    H   1.0     0.804333     0.765380     0.945200  Biso 1.000000     H
    H   1.0     0.228362     0.635882     0.879479  Biso 1.000000     H
    H   1.0     0.728675     0.636004     0.879402  Biso 1.000000     H
    H   1.0     0.284074     0.525704     0.922675  Biso 1.000000     H
    H   1.0     0.784358     0.525824     0.922631  Biso 1.000000     H
    H   1.0     0.131213     0.409760     0.786030  Biso 1.000000     H
    H   1.0     0.631430     0.409859     0.786028  Biso 1.000000     H
    H   1.0     0.074584     0.518917     0.742547  Biso 1.000000     H
    H   1.0     0.574808     0.519003     0.742547  Biso 1.000000     H
    H   1.0     0.232881     0.855559     0.879045  Biso 1.000000     H
    H   1.0     0.733399     0.855560     0.878869  Biso 1.000000     H
    H   1.0     0.294099     0.963711     0.927628  Biso 1.000000     H
    H   1.0     0.794606     0.963746     0.927413  Biso 1.000000     H
    H   1.0     0.155350     0.085264     0.792134  Biso 1.000000     H
    H   1.0     0.655278     0.085227     0.792146  Biso 1.000000     H
    H   1.0     0.093615     0.977919     0.743312  Biso 1.000000     H
    H   1.0     0.593535     0.977853     0.743379  Biso 1.000000     H
    H   1.0     0.466317     0.063909     0.908200  Biso 1.000000     H
    H   1.0     0.966387     0.064075     0.908160  Biso 1.000000     H
    H   1.0     0.077038     0.052746     0.941599  Biso 1.000000     H
    H   1.0     0.577021     0.052695     0.941641  Biso 1.000000     H
    H   1.0     0.106525     0.941640     0.989218  Biso 1.000000     H
    H   1.0     0.606595     0.941689     0.989447  Biso 1.000000     H
    H   1.0     0.016288     0.876791     0.988392  Biso 1.000000     H
    H   1.0     0.516393     0.876806     0.988733  Biso 1.000000     H
    H   1.0     0.373872     0.524194     0.018165  Biso 1.000000     H
    H   1.0     0.873896     0.524286     0.018103  Biso 1.000000     H
    H   1.0     0.422323     0.608297     0.999769  Biso 1.000000     H
    H   1.0     0.922380     0.608361     0.999639  Biso 1.000000     H
    H   1.0     0.013472     0.442171     0.902422  Biso 1.000000     H
    H   1.0     0.513494     0.442241     0.902390  Biso 1.000000     H
    H   1.0     0.427493     0.425345     0.959557  Biso 1.000000     H
    H   1.0     0.927476     0.425366     0.959593  Biso 1.000000     H
    C   1.0     0.187382     0.745601     0.595231  Biso 1.000000     C
    C   1.0     0.687103     0.745664     0.595166  Biso 1.000000     C
    C   1.0     0.280406     0.734262     0.579065  Biso 1.000000     C
    C   1.0     0.780068     0.734315     0.578863  Biso 1.000000     C
    C   1.0     0.309292     0.732137     0.518006  Biso 1.000000     C
    C   1.0     0.808769     0.732241     0.517765  Biso 1.000000     C
    C   1.0     0.246610     0.741949     0.470537  Biso 1.000000     C
    C   1.0     0.745961     0.742146     0.470389  Biso 1.000000     C
    C   1.0     0.154860     0.753690     0.484141  Biso 1.000000     C
    C   1.0     0.654269     0.753940     0.484129  Biso 1.000000     C
    C   1.0     0.125940     0.755267     0.545168  Biso 1.000000     C
    C   1.0     0.625526     0.755445     0.545200  Biso 1.000000     C
    C   1.0     0.399628     0.587389     0.695738  Biso 1.000000     C
    C   1.0     0.899696     0.587430     0.695167  Biso 1.000000     C
    C   1.0     0.458449     0.586355     0.643293  Biso 1.000000     C
    C   1.0     0.958195     0.587044     0.642536  Biso 1.000000     C
    C   1.0     0.489165     0.524635     0.618510  Biso 1.000000     C
    C   1.0     0.988851     0.525641     0.617092  Biso 1.000000     C
    C   1.0     0.462607     0.460968     0.644908  Biso 1.000000     C
    C   1.0     0.962555     0.461659     0.642992  Biso 1.000000     C
    C   1.0     0.403440     0.459152     0.695262  Biso 1.000000     C
    C   1.0     0.903755     0.459221     0.693536  Biso 1.000000     C
    C   1.0     0.372281     0.521006     0.719864  Biso 1.000000     C
    C   1.0     0.872649     0.520756     0.718803  Biso 1.000000     C
    C   1.0     0.410424     0.906618     0.695345  Biso 1.000000     C
    C   1.0     0.910699     0.906611     0.693849  Biso 1.000000     C
    C   1.0     0.466678     0.905329     0.641643  Biso 1.000000     C
    C   1.0     0.967626     0.905861     0.640451  Biso 1.000000     C
    C   1.0     0.001213     0.966638     0.612870  Biso 1.000000     C
    C   1.0     0.500122     0.965826     0.613489  Biso 1.000000     C
    C   1.0     0.478693     0.030554     0.637886  Biso 1.000000     C
    C   1.0     0.979369     0.031129     0.637575  Biso 1.000000     C
    C   1.0     0.422714     0.034629     0.689659  Biso 1.000000     C
    C   1.0     0.922824     0.034686     0.689103  Biso 1.000000     C
    C   1.0     0.389079     0.973999     0.717628  Biso 1.000000     C
    C   1.0     0.889020     0.973771     0.716506  Biso 1.000000     C
    C   1.0     0.251317     0.038815     0.554470  Biso 1.000000     C
    C   1.0     0.751264     0.038951     0.554463  Biso 1.000000     C
    C   1.0     0.280234     0.931879     0.506645  Biso 1.000000     C
    C   1.0     0.780228     0.932024     0.506635  Biso 1.000000     C
    C   1.0     0.188720     0.552981     0.496725  Biso 1.000000     C
    C   1.0     0.685474     0.553486     0.495460  Biso 1.000000     C
    C   1.0     0.241638     0.457531     0.552959  Biso 1.000000     C
    C   1.0     0.738441     0.458005     0.551799  Biso 1.000000     C
    C   1.0     0.062675     0.253814     0.094512  Biso 1.000000     C
    C   1.0     0.562707     0.253796     0.094416  Biso 1.000000     C
    C   1.0     0.469708     0.265258     0.078242  Biso 1.000000     C
    C   1.0     0.969711     0.265336     0.078357  Biso 1.000000     C
    C   1.0     0.440789     0.267309     0.017176  Biso 1.000000     C
    C   1.0     0.940765     0.267379     0.017298  Biso 1.000000     C
    C   1.0     0.003317     0.257262     0.969833  Biso 1.000000     C
    C   1.0     0.503401     0.257243     0.969722  Biso 1.000000     C
    C   1.0     0.095011     0.245277     0.983437  Biso 1.000000     C
    C   1.0     0.595100     0.245299     0.983345  Biso 1.000000     C
    C   1.0     0.123990     0.243785     0.044464  Biso 1.000000     C
    C   1.0     0.624051     0.243802     0.044378  Biso 1.000000     C
    C   1.0     0.350354     0.412195     0.194567  Biso 1.000000     C
    C   1.0     0.850520     0.412270     0.194541  Biso 1.000000     C
    C   1.0     0.291525     0.413242     0.142104  Biso 1.000000     C
    C   1.0     0.791746     0.413335     0.142049  Biso 1.000000     C
    C   1.0     0.260904     0.474972     0.117281  Biso 1.000000     C
    C   1.0     0.761149     0.475070     0.117229  Biso 1.000000     C
    C   1.0     0.287578     0.538641     0.143645  Biso 1.000000     C
    C   1.0     0.787866     0.538733     0.143588  Biso 1.000000     C
    C   1.0     0.346743     0.540447     0.194019  Biso 1.000000     C
    C   1.0     0.847034     0.540526     0.193959  Biso 1.000000     C
    C   1.0     0.377794     0.478582     0.218669  Biso 1.000000     C
    C   1.0     0.878053     0.478652     0.218616  Biso 1.000000     C
    C   1.0     0.339226     0.093203     0.194731  Biso 1.000000     C
    C   1.0     0.839238     0.093218     0.194732  Biso 1.000000     C
    C   1.0     0.282385     0.094196     0.141282  Biso 1.000000     C
    C   1.0     0.782422     0.094210     0.141271  Biso 1.000000     C
    C   1.0     0.248628     0.033536     0.113550  Biso 1.000000     C
    C   1.0     0.748680     0.033549     0.113534  Biso 1.000000     C
    C   1.0     0.270289     0.968946     0.138128  Biso 1.000000     C
    C   1.0     0.770341     0.968960     0.138113  Biso 1.000000     C
    C   1.0     0.326799     0.965162     0.189674  Biso 1.000000     C
    C   1.0     0.826829     0.965177     0.189670  Biso 1.000000     C
    C   1.0     0.360736     0.025952     0.217237  Biso 1.000000     C
    C   1.0     0.860748     0.025968     0.217240  Biso 1.000000     C
    C   1.0     0.496804     0.959612     0.053816  Biso 1.000000     C
    C   1.0     0.996755     0.959475     0.053608  Biso 1.000000     C
    C   1.0     0.468144     0.067356     0.007414  Biso 1.000000     C
    C   1.0     0.968172     0.067311     0.007379  Biso 1.000000     C
    C   1.0     0.063133     0.446892     0.995862  Biso 1.000000     C
    C   1.0     0.563177     0.446869     0.995828  Biso 1.000000     C
    C   1.0     0.010949     0.542815     0.051867  Biso 1.000000     C
    C   1.0     0.510952     0.542713     0.051933  Biso 1.000000     C
    C   1.0     0.312837     0.254371     0.404951  Biso 1.000000     C
    C   1.0     0.812688     0.254489     0.404917  Biso 1.000000     C
    C   1.0     0.219840     0.265618     0.421231  Biso 1.000000     C
    C   1.0     0.719650     0.265742     0.421096  Biso 1.000000     C
    C   1.0     0.191100     0.267658     0.482322  Biso 1.000000     C
    C   1.0     0.690768     0.267787     0.482157  Biso 1.000000     C
    C   1.0     0.253901     0.257818     0.529715  Biso 1.000000     C
    C   1.0     0.753465     0.257975     0.529618  Biso 1.000000     C
    C   1.0     0.345628     0.246133     0.515997  Biso 1.000000     C
    C   1.0     0.845229     0.246312     0.516002  Biso 1.000000     C
    C   1.0     0.374410     0.244666     0.454933  Biso 1.000000     C
    C   1.0     0.874147     0.244819     0.454969  Biso 1.000000     C
    C   1.0     0.100349     0.412611     0.304854  Biso 1.000000     C
    C   1.0     0.600408     0.412887     0.304301  Biso 1.000000     C
    C   1.0     0.041877     0.412988     0.357500  Biso 1.000000     C
    C   1.0     0.541634     0.413875     0.356770  Biso 1.000000     C
    C   1.0     0.011234     0.474386     0.382962  Biso 1.000000     C
    C   1.0     0.510867     0.475570     0.381573  Biso 1.000000     C
    C   1.0     0.037522     0.538373     0.357067  Biso 1.000000     C
    C   1.0     0.537367     0.539255     0.355189  Biso 1.000000     C
    C   1.0     0.096297     0.540820     0.306510  Biso 1.000000     C
    C   1.0     0.596509     0.541116     0.304821  Biso 1.000000     C
    C   1.0     0.127391     0.479289     0.281226  Biso 1.000000     C
    C   1.0     0.627708     0.479287     0.280193  Biso 1.000000     C
    C   1.0     0.089354     0.093374     0.306175  Biso 1.000000     C
    C   1.0     0.589389     0.093427     0.306147  Biso 1.000000     C
    C   1.0     0.032530     0.094117     0.359622  Biso 1.000000     C
    C   1.0     0.532556     0.094148     0.359590  Biso 1.000000     C
    C   1.0     0.498966     0.033353     0.387157  Biso 1.000000     C
    C   1.0     0.998972     0.033335     0.387213  Biso 1.000000     C
    C   1.0     0.020742     0.968848     0.362466  Biso 1.000000     C
    C   1.0     0.520760     0.968878     0.362386  Biso 1.000000     C
    C   1.0     0.077199     0.965299     0.310893  Biso 1.000000     C
    C   1.0     0.577232     0.965350     0.310819  Biso 1.000000     C
    C   1.0     0.110977     0.026218     0.283483  Biso 1.000000     C
    C   1.0     0.611017     0.026282     0.283434  Biso 1.000000     C
    C   1.0     0.248693     0.960776     0.445592  Biso 1.000000     C
    C   1.0     0.748723     0.960927     0.445576  Biso 1.000000     C
    C   1.0     0.219797     0.067712     0.493412  Biso 1.000000     C
    C   1.0     0.719771     0.067850     0.493399  Biso 1.000000     C
    C   1.0     0.314573     0.446514     0.504653  Biso 1.000000     C
    C   1.0     0.811341     0.447023     0.503456  Biso 1.000000     C
    C   1.0     0.261584     0.542005     0.448351  Biso 1.000000     C
    C   1.0     0.758438     0.542460     0.447180  Biso 1.000000     C
    C   1.0     0.437370     0.745969     0.905891  Biso 1.000000     C
    C   1.0     0.937353     0.746168     0.905558  Biso 1.000000     C
    C   1.0     0.030304     0.734619     0.921730  Biso 1.000000     C
    C   1.0     0.530349     0.734458     0.922103  Biso 1.000000     C
    C   1.0     0.059230     0.732572     0.982793  Biso 1.000000     C
    C   1.0     0.559243     0.732481     0.983178  Biso 1.000000     C
    C   1.0     0.496626     0.742645     0.030610  Biso 1.000000     C
    C   1.0     0.996665     0.742699     0.030249  Biso 1.000000     C
    C   1.0     0.404946     0.754624     0.016954  Biso 1.000000     C
    C   1.0     0.904981     0.754700     0.016630  Biso 1.000000     C
    C   1.0     0.376019     0.756051     0.955915  Biso 1.000000     C
    C   1.0     0.876023     0.756198     0.955598  Biso 1.000000     C
    C   1.0     0.149487     0.587611     0.805502  Biso 1.000000     C
    C   1.0     0.649719     0.587713     0.805477  Biso 1.000000     C
    C   1.0     0.208245     0.586550     0.858001  Biso 1.000000     C
    C   1.0     0.708544     0.586665     0.857941  Biso 1.000000     C
    C   1.0     0.238879     0.524819     0.882806  Biso 1.000000     C
    C   1.0     0.739161     0.524934     0.882763  Biso 1.000000     C
    C   1.0     0.212227     0.461157     0.856418  Biso 1.000000     C
    C   1.0     0.712487     0.461266     0.856397  Biso 1.000000     C
    C   1.0     0.153081     0.459362     0.806034  Biso 1.000000     C
    C   1.0     0.653329     0.459462     0.806020  Biso 1.000000     C
    C   1.0     0.122028     0.521231     0.781391  Biso 1.000000     C
    C   1.0     0.622280     0.521328     0.781371  Biso 1.000000     C
    C   1.0     0.160648     0.906804     0.805440  Biso 1.000000     C
    C   1.0     0.660864     0.906773     0.805379  Biso 1.000000     C
    C   1.0     0.217288     0.905760     0.858981  Biso 1.000000     C
    C   1.0     0.717694     0.905756     0.858834  Biso 1.000000     C
    C   1.0     0.251009     0.966388     0.886776  Biso 1.000000     C
    C   1.0     0.751396     0.966406     0.886617  Biso 1.000000     C
    C   1.0     0.229478     0.031003     0.862187  Biso 1.000000     C
    C   1.0     0.729686     0.031007     0.862087  Biso 1.000000     C
    C   1.0     0.173110     0.034839     0.810577  Biso 1.000000     C
    C   1.0     0.673175     0.034811     0.810541  Biso 1.000000     C
    C   1.0     0.139215     0.974074     0.782947  Biso 1.000000     C
    C   1.0     0.639289     0.974035     0.782932  Biso 1.000000     C
    C   1.0     0.003230     0.040473     0.946452  Biso 1.000000     C
    C   1.0     0.503221     0.040408     0.946528  Biso 1.000000     C
    C   1.0     0.031816     0.932629     0.992685  Biso 1.000000     C
    C   1.0     0.531891     0.932659     0.992936  Biso 1.000000     C
    C   1.0     0.436884     0.552991     0.004230  Biso 1.000000     C
    C   1.0     0.936919     0.553055     0.004147  Biso 1.000000     C
    C   1.0     0.489105     0.457140     0.948127  Biso 1.000000     C
    C   1.0     0.989105     0.457132     0.948142  Biso 1.000000     C
    O   1.0     0.160552     0.746944     0.653185  Biso 1.000000     O
    O   1.0     0.660452     0.746907     0.653163  Biso 1.000000     O
    O   1.0     0.371237     0.645373     0.720089  Biso 1.000000     O
    O   1.0     0.871236     0.645110     0.720052  Biso 1.000000     O
    O   1.0     0.378952     0.849754     0.722359  Biso 1.000000     O
    O   1.0     0.879005     0.849467     0.720278  Biso 1.000000     O
    O   1.0     0.234346     0.964644     0.557324  Biso 1.000000     O
    O   1.0     0.734301     0.964784     0.557302  Biso 1.000000     O
    O   1.0     0.218530     0.529803     0.556414  Biso 1.000000     O
    O   1.0     0.715049     0.530223     0.555162  Biso 1.000000     O
    O   1.0     0.089598     0.252645     0.152453  Biso 1.000000     O
    O   1.0     0.589606     0.252634     0.152364  Biso 1.000000     O
    O   1.0     0.378726     0.354202     0.218903  Biso 1.000000     O
    O   1.0     0.878864     0.354269     0.218870  Biso 1.000000     O
    O   1.0     0.371134     0.150226     0.221288  Biso 1.000000     O
    O   1.0     0.871152     0.150241     0.221286  Biso 1.000000     O
    O   1.0     0.012089     0.033667     0.058397  Biso 1.000000     O
    O   1.0     0.512132     0.033813     0.058464  Biso 1.000000     O
    O   1.0     0.034742     0.470706     0.055675  Biso 1.000000     O
    O   1.0     0.534775     0.470604     0.055664  Biso 1.000000     O
    O   1.0     0.339521     0.253147     0.346956  Biso 1.000000     O
    O   1.0     0.839503     0.253197     0.346952  Biso 1.000000     O
    O   1.0     0.128815     0.354935     0.279962  Biso 1.000000     O
    O   1.0     0.628856     0.354922     0.279939  Biso 1.000000     O
    O   1.0     0.121032     0.150521     0.279740  Biso 1.000000     O
    O   1.0     0.621048     0.150587     0.279725  Biso 1.000000     O
    O   1.0     0.265690     0.034939     0.442735  Biso 1.000000     O
    O   1.0     0.765702     0.035094     0.442729  Biso 1.000000     O
    O   1.0     0.284979     0.469789     0.444956  Biso 1.000000     O
    O   1.0     0.781549     0.470187     0.443761  Biso 1.000000     O
    O   1.0     0.410494     0.747105     0.847942  Biso 1.000000     O
    O   1.0     0.910447     0.747332     0.847612  Biso 1.000000     O
    O   1.0     0.121150     0.645611     0.781162  Biso 1.000000     O
    O   1.0     0.621330     0.645703     0.781145  Biso 1.000000     O
    O   1.0     0.128848     0.849804     0.778780  Biso 1.000000     O
    O   1.0     0.628991     0.849767     0.778782  Biso 1.000000     O
    O   1.0     0.487917     0.966199     0.941872  Biso 1.000000     O
    O   1.0     0.987914     0.966279     0.941665  Biso 1.000000     O
    O   1.0     0.465276     0.529246     0.944392  Biso 1.000000     O
    O   1.0     0.965308     0.529240     0.944335  Biso 1.000000     O
   Cl   1.0     0.283161     0.739827     0.393924  Biso 1.000000    Cl
   Cl   1.0     0.782290     0.740089     0.393727  Biso 1.000000    Cl
   Cl   1.0     0.002598     0.384693     0.611400  Biso 1.000000    Cl
   Cl   1.0     0.502848     0.383623     0.614173  Biso 1.000000    Cl
   Cl   1.0     0.021239     0.107825     0.602950  Biso 1.000000    Cl
   Cl   1.0     0.520362     0.106897     0.602551  Biso 1.000000    Cl
   Cl   1.0     0.466815     0.259325     0.893101  Biso 1.000000    Cl
   Cl   1.0     0.966716     0.259328     0.893220  Biso 1.000000    Cl
   Cl   1.0     0.247486     0.616004     0.112841  Biso 1.000000    Cl
   Cl   1.0     0.747767     0.616104     0.112807  Biso 1.000000    Cl
   Cl   1.0     0.228094     0.892412     0.103362  Biso 1.000000    Cl
   Cl   1.0     0.728172     0.892423     0.103339  Biso 1.000000    Cl
   Cl   1.0     0.217528     0.259843     0.606367  Biso 1.000000    Cl
   Cl   1.0     0.716903     0.259996     0.606234  Biso 1.000000    Cl
   Cl   1.0     0.497086     0.616570     0.385957  Biso 1.000000    Cl
   Cl   1.0     0.997501     0.615333     0.388684  Biso 1.000000    Cl
   Cl   1.0     0.478863     0.892164     0.396976  Biso 1.000000    Cl
   Cl   1.0     0.978907     0.892148     0.397099  Biso 1.000000    Cl
   Cl   1.0     0.033242     0.740629     0.106867  Biso 1.000000    Cl
   Cl   1.0     0.533179     0.740653     0.107239  Biso 1.000000    Cl
   Cl   1.0     0.252370     0.383793     0.887182  Biso 1.000000    Cl
   Cl   1.0     0.752569     0.383901     0.887203  Biso 1.000000    Cl
   Cl   1.0     0.271671     0.107499     0.897023  Biso 1.000000    Cl
   Cl   1.0     0.771806     0.107528     0.896912  Biso 1.000000    Cl
    K   1.0     0.208495     0.884992     0.665246  Biso 1.000000     K
    K   1.0     0.708138     0.885018     0.664992  Biso 1.000000     K
    K   1.0     0.199625     0.608251     0.665465  Biso 1.000000     K
    K   1.0     0.699505     0.608249     0.665194  Biso 1.000000     K
    K   1.0     0.266231     0.747361     0.769065  Biso 1.000000     K
    K   1.0     0.766350     0.747411     0.768548  Biso 1.000000     K
    K   1.0     0.041506     0.114507     0.165460  Biso 1.000000     K
    K   1.0     0.541508     0.114569     0.165483  Biso 1.000000     K
    K   1.0     0.050785     0.391493     0.164595  Biso 1.000000     K
    K   1.0     0.550503     0.391393     0.164429  Biso 1.000000     K
    K   1.0     0.483829     0.252770     0.268344  Biso 1.000000     K
    K   1.0     0.983816     0.252735     0.268323  Biso 1.000000     K
    K   1.0     0.291793     0.114992     0.335120  Biso 1.000000     K
    K   1.0     0.791806     0.115068     0.335124  Biso 1.000000     K
    K   1.0     0.300486     0.391797     0.334882  Biso 1.000000     K
    K   1.0     0.800408     0.391870     0.334647  Biso 1.000000     K
    K   1.0     0.233718     0.252590     0.231493  Biso 1.000000     K
    K   1.0     0.733733     0.252615     0.231429  Biso 1.000000     K
    K   1.0     0.458841     0.885245     0.835453  Biso 1.000000     K
    K   1.0     0.958401     0.885514     0.834581  Biso 1.000000     K
    K   1.0     0.449586     0.608473     0.835653  Biso 1.000000     K
    K   1.0     0.949250     0.608483     0.835431  Biso 1.000000     K
    K   1.0     0.016239     0.747291     0.731758  Biso 1.000000     K
    K   1.0     0.516253     0.747313     0.732092  Biso 1.000000     K
