#======================================================================

# CRYSTAL DATA

#----------------------------------------------------------------------

data_VESTA_phase_1


_pd_phase_name                         MOF
_cell_length_a                         13.26200
_cell_length_b                         13.25700
_cell_length_c                         16.04100
_cell_angle_alpha                      92.08400
_cell_angle_beta                       92.09900
_cell_angle_gamma                      108.26100
_symmetry_space_group_name_H-M         "P 1"
_symmetry_Int_Tables_number            1

loop_
_symmetry_equiv_pos_as_xyz
   "x, y, z"

loop_
   _atom_site_label
   _atom_site_occupancy
   _atom_site_fract_x
   _atom_site_fract_y
   _atom_site_fract_z
   _atom_site_adp_type
   _atom_site_B_iso_or_equiv
   _atom_site_type_symbol
    H   1.0     0.765484     0.846559     0.084512  Biso 1.000000     H
    H   1.0     0.000000     0.748169     0.447401  Biso 1.000000     H
    H   1.0     0.199526     0.907206     0.430108  Biso 1.000000     H
    H   1.0     0.600850     0.024247     0.656924  Biso 1.000000     H
    H   1.0     0.763628     0.741536     0.453795  Biso 1.000000     H
    H   1.0    -0.016819     0.251816     0.552593  Biso 1.000000     H
    H   1.0     0.431822     0.953086     0.901290  Biso 1.000000     H
    H   1.0     0.498618     0.826266     0.865713  Biso 1.000000     H
    H   1.0     0.153422     0.234539     0.415436  Biso 1.000000     H
    H   1.0     0.937788     0.918633     0.226253  Biso 1.000000     H
    H   1.0    -0.012021     0.796537     0.136390  Biso 1.000000     H
    H   1.0     0.253460     0.006779     0.943956  Biso 1.000000     H
    H   1.0     0.333275     0.693527     0.173943  Biso 1.000000     H
    H   1.0     0.203030     0.000000     0.363347  Biso 1.000000     H
    H   1.0     0.806555     0.122073     0.022098  Biso 1.000000     H
    H   1.0     0.857052     0.321649     0.748017  Biso 1.000000     H
    H   1.0     0.348722     0.257200     0.840871  Biso 1.000000     H
    H   1.0     0.399134     0.975738     0.343067  Biso 1.000000     H
    H   1.0     0.953260     0.431898     0.401383  Biso 1.000000     H
    H   1.0     0.046736     0.568090     0.598611  Biso 1.000000     H
    H   1.0     0.306477     0.666154     0.325430  Biso 1.000000     H
    H   1.0     0.918810     0.937737     0.726322  Biso 1.000000     H
    H   1.0     0.846572     0.765448     0.584555  Biso 1.000000     H
    H   1.0     0.136423     0.408877     0.931293  Biso 1.000000     H
    H   1.0     0.193437     0.877915     0.977885  Biso 1.000000     H
    H   1.0     0.693521     0.333830     0.674565  Biso 1.000000     H
    H   1.0     0.878191     0.193709     0.478016  Biso 1.000000     H
    H   1.0     0.117314     0.426449     0.477346  Biso 1.000000     H
    H   1.0     0.666716     0.306459     0.826049  Biso 1.000000     H
    H   1.0     0.501388     0.173722     0.134283  Biso 1.000000     H
    H   1.0     0.741530     0.763609     0.953796  Biso 1.000000     H
    H   1.0     0.479748     0.667754     0.775317  Biso 1.000000     H
    H   1.0     0.826559     0.498658     0.365623  Biso 1.000000     H
    H   1.0     0.426182     0.117144     0.977195  Biso 1.000000     H
    H   1.0     0.746536     0.993213     0.056040  Biso 1.000000     H
    H   1.0     0.370049     0.463711     0.240687  Biso 1.000000     H
    H   1.0     0.236361     0.258461     0.546201  Biso 1.000000     H
    H   1.0     0.320890     0.857078     0.247301  Biso 1.000000     H
    H   1.0     0.800470     0.092782     0.569885  Biso 1.000000     H
    H   1.0     0.137790     0.111118     0.138172  Biso 1.000000     H
    H   1.0     0.883620     0.109980     0.843054  Biso 1.000000     H
    H   1.0     0.520257     0.332234     0.224678  Biso 1.000000     H
    H   1.0     0.748342     0.000000     0.947486  Biso 1.000000     H
    H   1.0     0.742723     0.651259     0.659134  Biso 1.000000     H
    H   1.0     0.536265     0.630106     0.259329  Biso 1.000000     H
    H   1.0     0.888915     0.862108     0.361779  Biso 1.000000     H
    H   1.0     0.679102     0.142909     0.752690  Biso 1.000000     H
    H   1.0     0.121801     0.806276     0.521971  Biso 1.000000     H
    H   1.0     0.081191     0.062251     0.273672  Biso 1.000000     H
    H   1.0     0.332010     0.520060     0.724616  Biso 1.000000     H
    H   1.0     0.173439     0.501339     0.634372  Biso 1.000000     H
    H   1.0     0.092505     0.800093     0.069664  Biso 1.000000     H
    H   1.0     0.000000     0.203443     0.863596  Biso 1.000000     H
    H   1.0     0.629941     0.536281     0.759304  Biso 1.000000     H
    H   1.0     0.882680     0.573542     0.522654  Biso 1.000000     H
    H   1.0     0.651279     0.742771     0.159119  Biso 1.000000     H
    H   1.0     0.667989     0.479930     0.275376  Biso 1.000000     H
    H   1.0     0.062207     0.081349     0.773739  Biso 1.000000     H
    H   1.0     0.993004     0.746323     0.555957  Biso 1.000000     H
    H   1.0     0.142948     0.678331     0.251973  Biso 1.000000     H
    H   1.0     0.568183     0.046898     0.098710  Biso 1.000000     H
    H   1.0     0.258488     0.236368     0.046201  Biso 1.000000     H
    H   1.0     0.463736     0.369866     0.740661  Biso 1.000000     H
    H   1.0     0.234508     0.153432     0.915482  Biso 1.000000     H
    H   1.0     0.116368     0.890000     0.156938  Biso 1.000000     H
    H   1.0     0.024089     0.600040     0.156510  Biso 1.000000     H
    H   1.0     0.975912     0.399938     0.843483  Biso 1.000000     H
    H   1.0     0.408257     0.136230     0.431026  Biso 1.000000     H
    H   1.0     0.111073     0.137888     0.638216  Biso 1.000000     H
    H   1.0     0.907489     0.199893     0.930324  Biso 1.000000     H
    H   1.0     0.591727     0.863756     0.568965  Biso 1.000000     H
    H   1.0     0.890519     0.116639     0.657060  Biso 1.000000     H
    H   1.0     0.006994     0.253666     0.444036  Biso 1.000000     H
    H   1.0     0.863579     0.591092     0.068696  Biso 1.000000     H
    H   1.0     0.862225     0.888860     0.861825  Biso 1.000000     H
    H   1.0     0.109472     0.883345     0.342933  Biso 1.000000     H
    H   1.0     0.573823     0.882840     0.022806  Biso 1.000000     H
    H   1.0     0.796963    -0.011759     0.636642  Biso 1.000000     H
    H   1.0     0.257264     0.348733     0.340856  Biso 1.000000     H
    H   1.0     0.251648    -0.017140     0.052507  Biso 1.000000     H
    C   1.0     0.252958     0.320140     0.276006  Biso 1.000000     C
    C   1.0     0.122012     0.480915     0.427369  Biso 1.000000     C
    C   1.0     0.422484     0.053321     0.315813  Biso 1.000000     C
    C   1.0     0.465105     0.244699     0.334181  Biso 1.000000     C
    C   1.0     0.074115     0.055202     0.942979  Biso 1.000000     C
    C   1.0     0.777460     0.456247     0.595258  Biso 1.000000     C
    C   1.0     0.514790     0.970056     0.114939  Biso 1.000000     C
    C   1.0     0.257700     0.254859     0.611922  Biso 1.000000     C
    C   1.0     0.163488     0.482958     0.699857  Biso 1.000000     C
    C   1.0     0.136419     0.621391     0.300468  Biso 1.000000     C
    C   1.0     0.055125     0.074101     0.442918  Biso 1.000000     C
    C   1.0     0.577508     0.946665     0.684179  Biso 1.000000     C
    C   1.0     0.973626     0.071817     0.946232  Biso 1.000000     C
    C   1.0     0.228372     0.615829     0.341814  Biso 1.000000     C
    C   1.0     0.188302     0.188440     0.163864  Biso 1.000000     C
    C   1.0     0.856799     0.570408     0.133814  Biso 1.000000     C
    C   1.0     0.061282     0.449386     0.731749  Biso 1.000000     C
    C   1.0     0.187504     0.217463     0.249071  Biso 1.000000     C
    C   1.0     0.340575     0.473854     0.890121  Biso 1.000000     C
    C   1.0     0.543849     0.222449     0.904925  Biso 1.000000     C
    C   1.0     0.519135     0.878105     0.072600  Biso 1.000000     C
    C   1.0     0.139869     0.123686     0.804107  Biso 1.000000     C
    C   1.0     0.056356     0.849528     0.107019  Biso 1.000000     C
    C   1.0     0.320125     0.252911     0.776021  Biso 1.000000     C
    C   1.0     0.482865     0.163651     0.199730  Biso 1.000000     C
    C   1.0     0.456148     0.777536     0.095071  Biso 1.000000     C
    C   1.0     0.614742     0.683140     0.279809  Biso 1.000000     C
    C   1.0     0.983676     0.099955     0.496967  Biso 1.000000     C
    C   1.0     0.470432     0.678092     0.056841  Biso 1.000000     C
    C   1.0     0.037066     0.794757     0.507372  Biso 1.000000     C
    C   1.0     0.742291     0.745133     0.388073  Biso 1.000000     C
    C   1.0     0.016318     0.900035     0.503025  Biso 1.000000     C
    C   1.0     0.526170     0.659404     0.609895  Biso 1.000000     C
    C   1.0     0.928316     0.026439     0.553820  Biso 1.000000     C
    C   1.0     0.244684     0.465286     0.834279  Biso 1.000000     C
    C   1.0     0.053391     0.423059     0.816118  Biso 1.000000     C
    C   1.0     0.554059     0.035082     0.819375  Biso 1.000000     C
    C   1.0     0.946608     0.576910     0.183872  Biso 1.000000     C
    C   1.0     0.254884     0.257714     0.111916  Biso 1.000000     C
    C   1.0     0.925878     0.944785     0.057013  Biso 1.000000     C
    C   1.0     0.517138     0.836336     0.800265  Biso 1.000000     C
    C   1.0     0.429104     0.143117     0.365952  Biso 1.000000     C
    C   1.0     0.794948     0.037301     0.007457  Biso 1.000000     C
    C   1.0     0.035183     0.553684     0.319054  Biso 1.000000     C
    C   1.0     0.844919     0.885793     0.113259  Biso 1.000000     C
    C   1.0     0.155074     0.114194     0.886734  Biso 1.000000     C
    C   1.0     0.679873     0.747066     0.223971  Biso 1.000000     C
    C   1.0     0.944868     0.925884     0.557075  Biso 1.000000     C
    C   1.0     0.938720     0.550630     0.268251  Biso 1.000000     C
    C   1.0     0.678049     0.470459     0.556929  Biso 1.000000     C
    C   1.0     0.385256     0.316839     0.720183  Biso 1.000000     C
    C   1.0     0.507547     0.745998     0.749489  Biso 1.000000     C
    C   1.0     0.782566     0.812437     0.250887  Biso 1.000000     C
    C   1.0     0.771624     0.384165     0.658189  Biso 1.000000     C
    C   1.0     0.026366     0.928168     0.053760  Biso 1.000000     C
    C   1.0     0.529568     0.321894     0.943157  Biso 1.000000     C
    C   1.0     0.811708     0.811542     0.836132  Biso 1.000000     C
    C   1.0     0.114149     0.155088     0.386691  Biso 1.000000     C
    C   1.0     0.071680     0.973547     0.446171  Biso 1.000000     C
    C   1.0     0.746147     0.507538     0.249441  Biso 1.000000     C
    C   1.0     0.836510     0.517021     0.300135  Biso 1.000000     C
    C   1.0     0.616253     0.228315     0.842273  Biso 1.000000     C
    C   1.0     0.217428     0.187548     0.749106  Biso 1.000000     C
    C   1.0     0.550958     0.938645     0.768490  Biso 1.000000     C
    C   1.0     0.222534     0.543743     0.404741  Biso 1.000000     C
    C   1.0     0.099843     0.983513     0.996895  Biso 1.000000     C
    C   1.0     0.378082     0.863630     0.199024  Biso 1.000000     C
    C   1.0     0.383740     0.771672     0.157719  Biso 1.000000     C
    C   1.0     0.812496     0.782523     0.750923  Biso 1.000000     C
    C   1.0     0.316946     0.385254     0.220191  Biso 1.000000     C
    C   1.0     0.755315     0.534687     0.165710  Biso 1.000000     C
    C   1.0     0.659423     0.526138     0.109875  Biso 1.000000     C
    C   1.0     0.811584     0.811646     0.336099  Biso 1.000000     C
    C   1.0     0.860125     0.876298     0.195885  Biso 1.000000     C
    C   1.0     0.321942     0.529521     0.443065  Biso 1.000000     C
    C   1.0     0.150081     0.943398     0.392793  Biso 1.000000     C
    C   1.0     0.473825     0.340583     0.390097  Biso 1.000000     C
    C   1.0     0.253851     0.492439     0.750549  Biso 1.000000     C
    C   1.0     0.969930     0.514825     0.615002  Biso 1.000000     C
    C   1.0     0.747035     0.679848     0.723986  Biso 1.000000     C
    C   1.0     0.885845     0.844897     0.613303  Biso 1.000000     C
    C   1.0     0.485210     0.029930     0.885057  Biso 1.000000     C
    C   1.0     0.492456     0.253989     0.250506  Biso 1.000000     C
    C   1.0     0.570887     0.856869     0.634040  Biso 1.000000     C
    C   1.0     0.863578     0.378600     0.699530  Biso 1.000000     C
    C   1.0     0.143201     0.429557     0.866174  Biso 1.000000     C
    C   1.0     0.480866     0.121880     0.927397  Biso 1.000000     C
    C   1.0     0.445943     0.964903     0.180623  Biso 1.000000     C
    C   1.0     0.962927     0.205233     0.492619  Biso 1.000000     C
    C   1.0     0.188407     0.188344     0.663895  Biso 1.000000     C
    C   1.0     0.943636     0.150455     0.892970  Biso 1.000000     C
    C   1.0     0.900149     0.016474     0.003096  Biso 1.000000     C
    C   1.0     0.030066     0.485169     0.384999  Biso 1.000000     C
    C   1.0     0.205044     0.962685     0.992534  Biso 1.000000     C
    C   1.0     0.877983     0.519083     0.572636  Biso 1.000000     C
    C   1.0     0.964817     0.446280     0.680926  Biso 1.000000     C
    C   1.0     0.876415     0.860081     0.695937  Biso 1.000000     C
    C   1.0     0.621911     0.136357     0.800967  Biso 1.000000     C
    C   1.0     0.745127     0.742267     0.888080  Biso 1.000000     C
    C   1.0     0.849915     0.056588     0.607197  Biso 1.000000     C
    C   1.0     0.449034     0.061341     0.231503  Biso 1.000000     C
    C   1.0     0.683049     0.614735     0.779802  Biso 1.000000     C
    C   1.0     0.534893     0.755287     0.665813  Biso 1.000000     C
    C   1.0     0.123582     0.139906     0.304057  Biso 1.000000     C
    N   1.0     0.679995     0.645428     0.860777  Biso 1.000000     N
    N   1.0     0.354560     0.319913     0.639205  Biso 1.000000     N
    N   1.0     0.645434     0.680071     0.360788  Biso 1.000000     N
    N   1.0     0.320007     0.354557     0.139218  Biso 1.000000     N
    O   1.0     0.422175     0.591370     0.090067  Biso 1.000000     O
    O   1.0     0.577809     0.408614     0.909922  Biso 1.000000     O
    O   1.0     0.431602     0.525694     0.864956  Biso 1.000000     O
    O   1.0     0.676335     0.572135     0.040975  Biso 1.000000     O
    O   1.0     0.572183     0.676334     0.541015  Biso 1.000000     O
    O   1.0     0.474267     0.568343     0.635023  Biso 1.000000     O
    O   1.0     0.408662     0.577831     0.409902  Biso 1.000000     O
    O   1.0     0.311536     0.467788     0.503566  Biso 1.000000     O
    O   1.0     0.591330     0.422152     0.590095  Biso 1.000000     O
    O   1.0     0.427807     0.323653     0.458976  Biso 1.000000     O
    O   1.0     0.467788     0.311517     0.003596  Biso 1.000000     O
    O   1.0     0.525737     0.431643     0.364974  Biso 1.000000     O
    O   1.0     0.323668     0.427829     0.959010  Biso 1.000000     O
    O   1.0     0.568394     0.474308     0.135043  Biso 1.000000     O
    O   1.0     0.688456     0.532201     0.496435  Biso 1.000000     O
    O   1.0     0.532224     0.688470     0.996409  Biso 1.000000     O
   Zn   1.0     0.559718     0.569982     0.440281  Biso 1.000000    Zn
   Zn   1.0     0.440273     0.430002     0.559713  Biso 1.000000    Zn
   Zn   1.0     0.430060     0.440280     0.059735  Biso 1.000000    Zn
   Zn   1.0     0.569938     0.559706     0.940260  Biso 1.000000    Zn
