#======================================================================

# CRYSTAL DATA

#----------------------------------------------------------------------

data_VESTA_phase_1


_pd_phase_name                         MOF
_cell_length_a                         12.50800
_cell_length_b                         15.84500
_cell_length_c                         16.64400
_cell_angle_alpha                      104.35700
_cell_angle_beta                       90.12800
_cell_angle_gamma                      101.25600
_symmetry_space_group_name_H-M         "P 1"
_symmetry_Int_Tables_number            1

loop_
_symmetry_equiv_pos_as_xyz
   "x, y, z"

loop_
   _atom_site_label
   _atom_site_occupancy
   _atom_site_fract_x
   _atom_site_fract_y
   _atom_site_fract_z
   _atom_site_adp_type
   _atom_site_B_iso_or_equiv
   _atom_site_type_symbol
    H   1.0    -0.009548     0.187006     0.376070  Biso 1.000000     H
    H   1.0     0.490446     0.187006     0.376068  Biso 1.000000     H
    H   1.0     0.427511     0.322185     0.448690  Biso 1.000000     H
    H   1.0     0.927510     0.322186     0.448689  Biso 1.000000     H
    H   1.0     0.236278     0.481817     0.411689  Biso 1.000000     H
    H   1.0     0.736274     0.481816     0.411695  Biso 1.000000     H
    H   1.0     0.298598     0.343721     0.339233  Biso 1.000000     H
    H   1.0     0.798594     0.343720     0.339236  Biso 1.000000     H
    H   1.0     0.107667     0.555717     0.481092  Biso 1.000000     H
    H   1.0     0.607663     0.555716     0.481097  Biso 1.000000     H
    H   1.0     0.413649     0.107747     0.230116  Biso 1.000000     H
    H   1.0     0.913647     0.107746     0.230116  Biso 1.000000     H
    H   1.0     0.055865     0.108119     0.128634  Biso 1.000000     H
    H   1.0     0.555859     0.108123     0.128632  Biso 1.000000     H
    H   1.0     0.334836     0.891515     0.959213  Biso 1.000000     H
    H   1.0     0.834832     0.891517     0.959211  Biso 1.000000     H
    H   1.0     0.204296     0.898319     0.070045  Biso 1.000000     H
    H   1.0     0.704293     0.898321     0.070043  Biso 1.000000     H
    H   1.0     0.396476     0.812928     0.123697  Biso 1.000000     H
    H   1.0     0.896474     0.812929     0.123695  Biso 1.000000     H
    H   1.0     0.265939     0.677867     0.051505  Biso 1.000000     H
    H   1.0     0.765938     0.677867     0.051502  Biso 1.000000     H
    H   1.0     0.495775     0.517977     0.088292  Biso 1.000000     H
    H   1.0     0.995770     0.517978     0.088297  Biso 1.000000     H
    H   1.0     0.127316     0.655994     0.160129  Biso 1.000000     H
    H   1.0     0.627314     0.655994     0.160124  Biso 1.000000     H
    H   1.0     0.329914     0.444167     0.019193  Biso 1.000000     H
    H   1.0     0.829907     0.444166     0.019201  Biso 1.000000     H
    H   1.0     0.360102     0.891689     0.269562  Biso 1.000000     H
    H   1.0     0.860093     0.891687     0.269561  Biso 1.000000     H
    H   1.0     0.002287     0.891626     0.371605  Biso 1.000000     H
    H   1.0     0.502289     0.891630     0.371606  Biso 1.000000     H
    H   1.0     0.388395     0.108266     0.540212  Biso 1.000000     H
    H   1.0     0.888393     0.108266     0.540211  Biso 1.000000     H
    H   1.0     0.254204     0.101029     0.428891  Biso 1.000000     H
    H   1.0     0.754203     0.101031     0.428889  Biso 1.000000     H
    H   1.0     0.509529     0.812982     0.623915  Biso 1.000000     H
    H   1.0     0.000000     0.812983     0.623910  Biso 1.000000     H
    H   1.0     0.072464     0.677803     0.551291  Biso 1.000000     H
    H   1.0     0.572466     0.677801     0.551300  Biso 1.000000     H
    H   1.0     0.263704     0.518172     0.588301  Biso 1.000000     H
    H   1.0     0.763703     0.518171     0.588301  Biso 1.000000     H
    H   1.0     0.201382     0.656269     0.660752  Biso 1.000000     H
    H   1.0     0.701381     0.656267     0.660757  Biso 1.000000     H
    H   1.0     0.392314     0.444270     0.518899  Biso 1.000000     H
    H   1.0     0.892313     0.444271     0.518897  Biso 1.000000     H
    H   1.0     0.086325     0.892246     0.769859  Biso 1.000000     H
    H   1.0     0.586319     0.892248     0.769859  Biso 1.000000     H
    H   1.0     0.444113     0.891869     0.871344  Biso 1.000000     H
    H   1.0     0.944113     0.891866     0.871345  Biso 1.000000     H
    H   1.0     0.165144     0.108472     0.040765  Biso 1.000000     H
    H   1.0     0.665141     0.108468     0.040768  Biso 1.000000     H
    H   1.0     0.295679     0.101674     0.929930  Biso 1.000000     H
    H   1.0     0.795677     0.101670     0.929933  Biso 1.000000     H
    H   1.0     0.103507     0.187060     0.876273  Biso 1.000000     H
    H   1.0     0.603501     0.187058     0.876285  Biso 1.000000     H
    H   1.0     0.234047     0.322120     0.948465  Biso 1.000000     H
    H   1.0     0.734040     0.322119     0.948478  Biso 1.000000     H
    H   1.0     0.004211     0.482013     0.911686  Biso 1.000000     H
    H   1.0     0.504212     0.482012     0.911680  Biso 1.000000     H
    H   1.0     0.372671     0.343996     0.839847  Biso 1.000000     H
    H   1.0     0.872661     0.343999     0.839855  Biso 1.000000     H
    H   1.0     0.170075     0.555822     0.980779  Biso 1.000000     H
    H   1.0     0.670073     0.555821     0.980778  Biso 1.000000     H
    H   1.0     0.139908     0.108324     0.730405  Biso 1.000000     H
    H   1.0     0.639906     0.108327     0.730406  Biso 1.000000     H
    H   1.0     0.497718     0.108392     0.628361  Biso 1.000000     H
    H   1.0     0.997710     0.108386     0.628361  Biso 1.000000     H
    H   1.0     0.111544     0.891695     0.459778  Biso 1.000000     H
    H   1.0     0.611537     0.891694     0.459782  Biso 1.000000     H
    H   1.0     0.245745     0.898941     0.571094  Biso 1.000000     H
    H   1.0     0.745738     0.898941     0.571098  Biso 1.000000     H
    C   1.0     0.190310     0.174836     0.311971  Biso 1.000000     C
    C   1.0     0.690308     0.174835     0.311976  Biso 1.000000     C
    C   1.0     0.149342     0.256476     0.354008  Biso 1.000000     C
    C   1.0     0.649337     0.256476     0.354006  Biso 1.000000     C
    C   1.0     0.044551     0.251678     0.385031  Biso 1.000000     C
    C   1.0     0.544548     0.251677     0.385032  Biso 1.000000     C
    C   1.0     0.009652     0.328261     0.426126  Biso 1.000000     C
    C   1.0     0.509647     0.328260     0.426128  Biso 1.000000     C
    C   1.0     0.078087     0.412953     0.437358  Biso 1.000000     C
    C   1.0     0.578083     0.412952     0.437361  Biso 1.000000     C
    C   1.0     0.182435     0.417004     0.404434  Biso 1.000000     C
    C   1.0     0.682432     0.417004     0.404440  Biso 1.000000     C
    C   1.0     0.217719     0.340325     0.363947  Biso 1.000000     C
    C   1.0     0.717716     0.340324     0.363952  Biso 1.000000     C
    C   1.0     0.046884     0.495712     0.480569  Biso 1.000000     C
    C   1.0     0.546879     0.495712     0.480571  Biso 1.000000     C
    C   1.0     0.400470     0.060520     0.169530  Biso 1.000000     C
    C   1.0     0.900469     0.060518     0.169530  Biso 1.000000     C
    C   1.0     0.479196     0.060505     0.110895  Biso 1.000000     C
    C   1.0     0.979195     0.060503     0.110896  Biso 1.000000     C
    C   1.0     0.459177     0.000390     0.032283  Biso 1.000000     C
    C   1.0     0.959175     0.000389     0.032283  Biso 1.000000     C
    C   1.0     0.357589     0.940840     0.018060  Biso 1.000000     C
    C   1.0     0.857586     0.940841     0.018060  Biso 1.000000     C
    C   1.0     0.283091     0.944115     0.079797  Biso 1.000000     C
    C   1.0     0.783087     0.944116     0.079796  Biso 1.000000     C
    C   1.0     0.103181     0.825046     0.186927  Biso 1.000000     C
    C   1.0     0.603178     0.825046     0.186925  Biso 1.000000     C
    C   1.0     0.021248     0.743395     0.145436  Biso 1.000000     C
    C   1.0     0.521245     0.743395     0.145436  Biso 1.000000     C
    C   1.0     0.418480     0.748242     0.114752  Biso 1.000000     C
    C   1.0     0.918478     0.748243     0.114750  Biso 1.000000     C
    C   1.0     0.345258     0.671689     0.073864  Biso 1.000000     C
    C   1.0     0.845254     0.671689     0.073867  Biso 1.000000     C
    C   1.0     0.371585     0.586949     0.062656  Biso 1.000000     C
    C   1.0     0.871582     0.586949     0.062657  Biso 1.000000     C
    C   1.0     0.474176     0.582830     0.095451  Biso 1.000000     C
    C   1.0     0.974169     0.582830     0.095458  Biso 1.000000     C
    C   1.0     0.047888     0.659487     0.135637  Biso 1.000000     C
    C   1.0     0.547884     0.659487     0.135636  Biso 1.000000     C
    C   1.0     0.299053     0.504231     0.019504  Biso 1.000000     C
    C   1.0     0.799045     0.504230     0.019513  Biso 1.000000     C
    C   1.0     0.370322     0.938951     0.330135  Biso 1.000000     C
    C   1.0     0.870313     0.938947     0.330136  Biso 1.000000     C
    C   1.0     0.449151     0.939186     0.389053  Biso 1.000000     C
    C   1.0     0.949146     0.939185     0.389052  Biso 1.000000     C
    C   1.0     0.458901    -0.000532     0.467570  Biso 1.000000     C
    C   1.0     0.958895    -0.000535     0.467569  Biso 1.000000     C
    C   1.0     0.386712     0.058893     0.481455  Biso 1.000000     C
    C   1.0     0.886711     0.058894     0.481452  Biso 1.000000     C
    C   1.0     0.310498     0.055397     0.419471  Biso 1.000000     C
    C   1.0     0.810491     0.055395     0.419471  Biso 1.000000     C
    C   1.0     0.309668     0.825154     0.688004  Biso 1.000000     C
    C   1.0     0.809673     0.825151     0.688029  Biso 1.000000     C
    C   1.0     0.350640     0.743512     0.645981  Biso 1.000000     C
    C   1.0     0.850627     0.743514     0.645962  Biso 1.000000     C
    C   1.0     0.455428     0.748310     0.614953  Biso 1.000000     C
    C   1.0     0.955430     0.748310     0.614961  Biso 1.000000     C
    C   1.0     0.490330     0.671727     0.573863  Biso 1.000000     C
    C   1.0     0.990323     0.671728     0.573854  Biso 1.000000     C
    C   1.0     0.421895     0.587035     0.562631  Biso 1.000000     C
    C   1.0     0.921895     0.587035     0.562636  Biso 1.000000     C
    C   1.0     0.317546     0.582984     0.595554  Biso 1.000000     C
    C   1.0     0.817542     0.582984     0.595552  Biso 1.000000     C
    C   1.0     0.282260     0.659665     0.636036  Biso 1.000000     C
    C   1.0     0.782265     0.659663     0.636051  Biso 1.000000     C
    C   1.0     0.453100     0.504275     0.519425  Biso 1.000000     C
    C   1.0     0.953093     0.504276     0.519416  Biso 1.000000     C
    C   1.0     0.099513     0.939465     0.830450  Biso 1.000000     C
    C   1.0     0.599510     0.939463     0.830451  Biso 1.000000     C
    C   1.0     0.020779     0.939488     0.889080  Biso 1.000000     C
    C   1.0     0.520773     0.939491     0.889079  Biso 1.000000     C
    C   1.0     0.040799    -0.000382     0.967696  Biso 1.000000     C
    C   1.0     0.540795    -0.000383     0.967697  Biso 1.000000     C
    C   1.0     0.142386     0.059152     0.981915  Biso 1.000000     C
    C   1.0     0.642382     0.059152     0.981917  Biso 1.000000     C
    C   1.0     0.216892     0.055869     0.920185  Biso 1.000000     C
    C   1.0     0.716890     0.055865     0.920188  Biso 1.000000     C
    C   1.0     0.396802     0.174943     0.813057  Biso 1.000000     C
    C   1.0     0.896806     0.174948     0.813031  Biso 1.000000     C
    C   1.0     0.478740     0.256595     0.854537  Biso 1.000000     C
    C   1.0     0.978722     0.256596     0.854560  Biso 1.000000     C
    C   1.0     0.081511     0.251748     0.885210  Biso 1.000000     C
    C   1.0     0.581499     0.251745     0.885230  Biso 1.000000     C
    C   1.0     0.154726     0.328299     0.926111  Biso 1.000000     C
    C   1.0     0.654724     0.328298     0.926112  Biso 1.000000     C
    C   1.0     0.128407     0.413041     0.937307  Biso 1.000000     C
    C   1.0     0.628396     0.413038     0.937324  Biso 1.000000     C
    C   1.0     0.025807     0.417160     0.904528  Biso 1.000000     C
    C   1.0     0.525812     0.417159     0.904519  Biso 1.000000     C
    C   1.0     0.452098     0.340503     0.864341  Biso 1.000000     C
    C   1.0     0.952098     0.340505     0.864330  Biso 1.000000     C
    C   1.0     0.200932     0.495757     0.980472  Biso 1.000000     C
    C   1.0     0.700935     0.495757     0.980465  Biso 1.000000     C
    C   1.0     0.129664     0.061048     0.669838  Biso 1.000000     C
    C   1.0     0.629660     0.061050     0.669841  Biso 1.000000     C
    C   1.0     0.050843     0.060821     0.610919  Biso 1.000000     C
    C   1.0     0.550844     0.060826     0.610920  Biso 1.000000     C
    C   1.0     0.041066     0.000541     0.532412  Biso 1.000000     C
    C   1.0     0.541063     0.000543     0.532414  Biso 1.000000     C
    C   1.0     0.113248     0.941083     0.518529  Biso 1.000000     C
    C   1.0     0.613245     0.941085     0.518531  Biso 1.000000     C
    C   1.0     0.189459     0.944578     0.580517  Biso 1.000000     C
    C   1.0     0.689452     0.944578     0.580521  Biso 1.000000     C
    N   1.0     0.302963     0.003537     0.154573  Biso 1.000000     N
    N   1.0     0.802961     0.003536     0.154573  Biso 1.000000     N
    N   1.0     0.301043     0.995903     0.344769  Biso 1.000000     N
    N   1.0     0.801039     0.995903     0.344768  Biso 1.000000     N
    N   1.0     0.197010     0.996461     0.845401  Biso 1.000000     N
    N   1.0     0.697007     0.996460     0.845403  Biso 1.000000     N
    N   1.0     0.198942     0.004092     0.655208  Biso 1.000000     N
    N   1.0     0.698937     0.004093     0.655211  Biso 1.000000     N
    O   1.0     0.120209     0.099104     0.298831  Biso 1.000000     O
    O   1.0     0.620205     0.099104     0.298830  Biso 1.000000     O
    O   1.0     0.287482     0.180764     0.292353  Biso 1.000000     O
    O   1.0     0.787476     0.180766     0.292347  Biso 1.000000     O
    O   1.0     0.070203     0.900684     0.201245  Biso 1.000000     O
    O   1.0     0.570198     0.900684     0.201246  Biso 1.000000     O
    O   1.0     0.198237     0.819232     0.204866  Biso 1.000000     O
    O   1.0     0.698234     0.819231     0.204863  Biso 1.000000     O
    O   1.0     0.379774     0.900884     0.701150  Biso 1.000000     O
    O   1.0     0.879767     0.900884     0.701144  Biso 1.000000     O
    O   1.0     0.212500     0.819223     0.707633  Biso 1.000000     O
    O   1.0     0.712494     0.819222     0.707628  Biso 1.000000     O
    O   1.0     0.429782     0.099305     0.798734  Biso 1.000000     O
    O   1.0     0.929772     0.099307     0.798743  Biso 1.000000     O
    O   1.0     0.301746     0.180756     0.795115  Biso 1.000000     O
    O   1.0     0.801737     0.180757     0.795122  Biso 1.000000     O
   Zn   1.0     0.194620    -0.000141     0.249665  Biso 1.000000    Zn
   Zn   1.0     0.694616    -0.000141     0.249664  Biso 1.000000    Zn
   Zn   1.0     0.305360     0.000146     0.750317  Biso 1.000000    Zn
   Zn   1.0     0.805356     0.000147     0.750318  Biso 1.000000    Zn
