#======================================================================

# CRYSTAL DATA

#----------------------------------------------------------------------

data_VESTA_phase_1


_pd_phase_name                         MOF
_cell_length_a                         22.64500
_cell_length_b                         15.35400
_cell_length_c                         16.18700
_cell_angle_alpha                      90.00100
_cell_angle_beta                       89.99600
_cell_angle_gamma                      89.98700
_symmetry_space_group_name_H-M         "P 1"
_symmetry_Int_Tables_number            1

loop_
_symmetry_equiv_pos_as_xyz
   "x, y, z"

loop_
   _atom_site_label
   _atom_site_occupancy
   _atom_site_fract_x
   _atom_site_fract_y
   _atom_site_fract_z
   _atom_site_adp_type
   _atom_site_B_iso_or_equiv
   _atom_site_type_symbol
    H   1.0     0.250155     0.845939     0.624181  Biso 1.000000     H
    H   1.0     0.750154     0.845902     0.624140  Biso 1.000000     H
    H   1.0     0.035150     0.427888     0.496969  Biso 1.000000     H
    H   1.0     0.535111     0.427832     0.497038  Biso 1.000000     H
    H   1.0     0.035167     0.572105     0.002989  Biso 1.000000     H
    H   1.0     0.535117     0.572147     0.002918  Biso 1.000000     H
    H   1.0     0.170315     0.344143     0.038751  Biso 1.000000     H
    H   1.0     0.669961     0.343805     0.038791  Biso 1.000000     H
    H   1.0     0.250123     0.153985     0.875865  Biso 1.000000     H
    H   1.0     0.750238     0.154108     0.875873  Biso 1.000000     H
    H   1.0     0.133418     0.419640     0.924010  Biso 1.000000     H
    H   1.0     0.633318     0.419567     0.924044  Biso 1.000000     H
    H   1.0     0.171796     0.657260     0.819887  Biso 1.000000     H
    H   1.0     0.671802     0.657230     0.819821  Biso 1.000000     H
    H   1.0     0.469821     0.269872     0.272957  Biso 1.000000     H
    H   1.0     0.969792     0.269955     0.272862  Biso 1.000000     H
    H   1.0     0.453887     0.758554     0.840892  Biso 1.000000     H
    H   1.0     0.953679     0.758263     0.840980  Biso 1.000000     H
    H   1.0     0.383484     0.080317     0.424078  Biso 1.000000     H
    H   1.0     0.883413     0.080487     0.424034  Biso 1.000000     H
    H   1.0     0.500258     0.345814     0.375850  Biso 1.000000     H
    H   1.0     0.000000     0.345903     0.375774  Biso 1.000000     H
    H   1.0     0.500257     0.654154     0.124138  Biso 1.000000     H
    H   1.0     0.000000     0.654086     0.124217  Biso 1.000000     H
    H   1.0     0.469813     0.730076     0.227052  Biso 1.000000     H
    H   1.0     0.969783     0.729992     0.227151  Biso 1.000000     H
    H   1.0     0.285016     0.927939     0.502981  Biso 1.000000     H
    H   1.0     0.785056     0.927891     0.502957  Biso 1.000000     H
    H   1.0     0.420224     0.844068     0.961251  Biso 1.000000     H
    H   1.0     0.919962     0.843725     0.961347  Biso 1.000000     H
    H   1.0     0.421755     0.842671     0.319878  Biso 1.000000     H
    H   1.0     0.921788     0.842686     0.319947  Biso 1.000000     H
    H   1.0     0.284993     0.072007     0.997083  Biso 1.000000     H
    H   1.0     0.785134     0.072131     0.997079  Biso 1.000000     H
    H   1.0     0.171810     0.342668     0.680121  Biso 1.000000     H
    H   1.0     0.671844     0.342734     0.680156  Biso 1.000000     H
    H   1.0     0.421743     0.157306     0.180160  Biso 1.000000     H
    H   1.0     0.921778     0.157289     0.180096  Biso 1.000000     H
    H   1.0     0.383451     0.919706     0.075988  Biso 1.000000     H
    H   1.0     0.883414     0.919568     0.076035  Biso 1.000000     H
    H   1.0     0.203988     0.741419     0.340907  Biso 1.000000     H
    H   1.0     0.703737     0.741685     0.340846  Biso 1.000000     H
    H   1.0     0.203967     0.258639     0.159112  Biso 1.000000     H
    H   1.0     0.703679     0.258328     0.159135  Biso 1.000000     H
    H   1.0     0.170347     0.655893     0.461250  Biso 1.000000     H
    H   1.0     0.670021     0.656190     0.461170  Biso 1.000000     H
    H   1.0     0.420306     0.155914     0.538807  Biso 1.000000     H
    H   1.0     0.920044     0.156259     0.538718  Biso 1.000000     H
    H   1.0     0.133446     0.580384     0.575970  Biso 1.000000     H
    H   1.0     0.633322     0.580458     0.575914  Biso 1.000000     H
    H   1.0     0.453956     0.241446     0.659136  Biso 1.000000     H
    H   1.0     0.953755     0.241734     0.659053  Biso 1.000000     H
    H   1.0     0.219844     0.769868     0.727088  Biso 1.000000     H
    H   1.0     0.719772     0.769903     0.727024  Biso 1.000000     H
    H   1.0     0.219841     0.230055     0.772946  Biso 1.000000     H
    H   1.0     0.719802     0.230050     0.772969  Biso 1.000000     H
    H   1.0     0.030230     0.270002     0.772857  Biso 1.000000     H
    H   1.0     0.530200     0.269925     0.772953  Biso 1.000000     H
    H   1.0    -0.000297     0.345908     0.875792  Biso 1.000000     H
    H   1.0     0.499759     0.345850     0.875869  Biso 1.000000     H
    H   1.0     0.030220     0.730042     0.727148  Biso 1.000000     H
    H   1.0     0.530183     0.730131     0.727058  Biso 1.000000     H
    H   1.0     0.328176     0.657267     0.319855  Biso 1.000000     H
    H   1.0     0.828201     0.657324     0.319891  Biso 1.000000     H
    H   1.0     0.280212     0.769947     0.227041  Biso 1.000000     H
    H   1.0     0.780172     0.769941     0.227067  Biso 1.000000     H
    H   1.0     0.078236     0.842706     0.819913  Biso 1.000000     H
    H   1.0     0.578268     0.842691     0.819855  Biso 1.000000     H
    H   1.0     0.366682     0.419552     0.424100  Biso 1.000000     H
    H   1.0     0.866564     0.419613     0.424038  Biso 1.000000     H
    H   1.0     0.116596     0.919511     0.575975  Biso 1.000000     H
    H   1.0     0.616516     0.919691     0.575937  Biso 1.000000     H
    H   1.0     0.296263     0.258325     0.659170  Biso 1.000000     H
    H   1.0     0.796024     0.258578     0.659100  Biso 1.000000     H
    H   1.0     0.249848     0.154111     0.375874  Biso 1.000000     H
    H   1.0     0.749852     0.154061     0.375827  Biso 1.000000     H
    H   1.0     0.116601     0.080429     0.923974  Biso 1.000000     H
    H   1.0     0.616557     0.080290     0.924019  Biso 1.000000     H
    H   1.0     0.080055     0.156274     0.038662  Biso 1.000000     H
    H   1.0     0.579775     0.155918     0.038753  Biso 1.000000     H
    H   1.0     0.366693     0.580425     0.075967  Biso 1.000000     H
    H   1.0     0.866597     0.580361     0.076000  Biso 1.000000     H
    H   1.0     0.464900     0.572166     0.502973  Biso 1.000000     H
    H   1.0     0.964860     0.572111     0.503041  Biso 1.000000     H
    H   1.0     0.296326     0.741658     0.840875  Biso 1.000000     H
    H   1.0     0.796055     0.741370     0.840900  Biso 1.000000     H
    H   1.0     0.280234     0.230104     0.272992  Biso 1.000000     H
    H   1.0     0.780167     0.230129     0.272919  Biso 1.000000     H
    H   1.0     0.330043     0.656180     0.961220  Biso 1.000000     H
    H   1.0     0.829708     0.655866     0.961262  Biso 1.000000     H
    H   1.0     0.214879     0.927863     0.002931  Biso 1.000000     H
    H   1.0     0.715015     0.927988     0.002931  Biso 1.000000     H
    H   1.0     0.249774     0.845886     0.124137  Biso 1.000000     H
    H   1.0     0.749884     0.846008     0.124148  Biso 1.000000     H
    H   1.0    -0.000277     0.654097     0.624236  Biso 1.000000     H
    H   1.0     0.499749     0.654188     0.624163  Biso 1.000000     H
    H   1.0     0.078223     0.157306     0.680062  Biso 1.000000     H
    H   1.0     0.578264     0.157333     0.680128  Biso 1.000000     H
    H   1.0     0.328210     0.342770     0.180194  Biso 1.000000     H
    H   1.0     0.828216     0.342736     0.180121  Biso 1.000000     H
    H   1.0     0.214950     0.072116     0.497056  Biso 1.000000     H
    H   1.0     0.714992     0.072059     0.497027  Biso 1.000000     H
    H   1.0     0.464900     0.427856     0.997090  Biso 1.000000     H
    H   1.0     0.964844     0.427888     0.997020  Biso 1.000000     H
    H   1.0     0.329974     0.343828     0.538846  Biso 1.000000     H
    H   1.0     0.829663     0.344105     0.538757  Biso 1.000000     H
    H   1.0     0.046254     0.758265     0.340957  Biso 1.000000     H
    H   1.0     0.546037     0.758574     0.340879  Biso 1.000000     H
    H   1.0     0.046338     0.241735     0.159028  Biso 1.000000     H
    H   1.0     0.546114     0.241431     0.159114  Biso 1.000000     H
    H   1.0     0.079964     0.843741     0.461292  Biso 1.000000     H
    H   1.0     0.579679     0.844110     0.461209  Biso 1.000000     H
    C   1.0     0.240767     0.820827     0.562632  Biso 1.000000     C
    C   1.0     0.740699     0.820863     0.562585  Biso 1.000000     C
    C   1.0     0.214942     0.237282     0.096779  Biso 1.000000     C
    C   1.0     0.714746     0.237077     0.096801  Biso 1.000000     C
    C   1.0     0.170917     0.344702     0.747054  Biso 1.000000     C
    C   1.0     0.670908     0.344723     0.747089  Biso 1.000000     C
    C   1.0     0.490833     0.320740     0.437402  Biso 1.000000     C
    C   1.0     0.990812     0.320869     0.437327  Biso 1.000000     C
    C   1.0     0.208625     0.257027     0.947873  Biso 1.000000     C
    C   1.0     0.708542     0.256960     0.947901  Biso 1.000000     C
    C   1.0     0.187501     0.307670     0.877724  Biso 1.000000     C
    C   1.0     0.687382     0.307578     0.877756  Biso 1.000000     C
    C   1.0     0.497888     0.660563     0.913807  Biso 1.000000     C
    C   1.0     0.997831     0.660415     0.913882  Biso 1.000000     C
    C   1.0     0.458690     0.242890     0.447889  Biso 1.000000     C
    C   1.0     0.958579     0.243099     0.447807  Biso 1.000000     C
    C   1.0     0.445929     0.784980     0.971058  Biso 1.000000     C
    C   1.0     0.945745     0.784710     0.971148  Biso 1.000000     C
    C   1.0     0.420885     0.155262     0.247094  Biso 1.000000     C
    C   1.0     0.920886     0.155302     0.247031  Biso 1.000000     C
    C   1.0     0.260157     0.132064     0.005638  Biso 1.000000     C
    C   1.0     0.760201     0.132100     0.005643  Biso 1.000000     C
    C   1.0     0.402798     0.882077     0.125688  Biso 1.000000     C
    C   1.0     0.902768     0.881963     0.125746  Biso 1.000000     C
    C   1.0     0.195972     0.285008     0.028943  Biso 1.000000     C
    C   1.0     0.695721     0.284770     0.028972  Biso 1.000000     C
    C   1.0     0.437498     0.807706     0.122275  Biso 1.000000     C
    C   1.0     0.937426     0.807548     0.122355  Biso 1.000000     C
    C   1.0     0.019994     0.388376     0.659776  Biso 1.000000     C
    C   1.0     0.520027     0.388296     0.659830  Biso 1.000000     C
    C   1.0     0.420885     0.844719     0.252945  Biso 1.000000     C
    C   1.0     0.920890     0.844683     0.253013  Biso 1.000000     C
    C   1.0     0.152803     0.617969     0.625685  Biso 1.000000     C
    C   1.0     0.652702     0.618028     0.625623  Biso 1.000000     C
    C   1.0     0.497916     0.339429     0.586194  Biso 1.000000     C
    C   1.0     0.997860     0.339579     0.586122  Biso 1.000000     C
    C   1.0     0.490818     0.679234     0.062592  Biso 1.000000     C
    C   1.0     0.990805     0.679114     0.062671  Biso 1.000000     C
    C   1.0     0.464910     0.737253     0.903223  Biso 1.000000     C
    C   1.0     0.964758     0.737018     0.903309  Biso 1.000000     C
    C   1.0     0.260184     0.867905     0.494402  Biso 1.000000     C
    C   1.0     0.760152     0.867924     0.494366  Biso 1.000000     C
    C   1.0     0.214966     0.762747     0.403244  Biso 1.000000     C
    C   1.0     0.714770     0.762940     0.403186  Biso 1.000000     C
    C   1.0     0.195997     0.715013     0.471071  Biso 1.000000     C
    C   1.0     0.695753     0.715230     0.471003  Biso 1.000000     C
    C   1.0     0.187517     0.692304     0.622294  Biso 1.000000     C
    C   1.0     0.687378     0.692402     0.622227  Biso 1.000000     C
    C   1.0     0.240742     0.179127     0.937409  Biso 1.000000     C
    C   1.0     0.740744     0.179140     0.937423  Biso 1.000000     C
    C   1.0     0.010228     0.632056     0.994439  Biso 1.000000     C
    C   1.0     0.510239     0.632154     0.994365  Biso 1.000000     C
    C   1.0     0.170915     0.655245     0.752953  Biso 1.000000     C
    C   1.0     0.670879     0.655252     0.752887  Biso 1.000000     C
    C   1.0     0.019992     0.611639     0.840223  Biso 1.000000     C
    C   1.0     0.520020     0.611712     0.840167  Biso 1.000000     C
    C   1.0     0.010225     0.367937     0.505554  Biso 1.000000     C
    C   1.0     0.510252     0.367823     0.505625  Biso 1.000000     C
    C   1.0     0.247891     0.839464     0.413836  Biso 1.000000     C
    C   1.0     0.747796     0.839559     0.413796  Biso 1.000000     C
    C   1.0     0.458653     0.757087     0.052125  Biso 1.000000     C
    C   1.0     0.958573     0.756908     0.052211  Biso 1.000000     C
    C   1.0     0.437524     0.192273     0.377753  Biso 1.000000     C
    C   1.0     0.937453     0.192429     0.377679  Biso 1.000000     C
    C   1.0     0.152783     0.382023     0.874309  Biso 1.000000     C
    C   1.0     0.652718     0.381987     0.874346  Biso 1.000000     C
    C   1.0     0.270012     0.888312     0.340192  Biso 1.000000     C
    C   1.0     0.769984     0.888363     0.340165  Biso 1.000000     C
    C   1.0     0.270012     0.111711     0.159840  Biso 1.000000     C
    C   1.0     0.769997     0.111669     0.159843  Biso 1.000000     C
    C   1.0     0.247871     0.160545     0.086198  Biso 1.000000     C
    C   1.0     0.747802     0.160460     0.086207  Biso 1.000000     C
    C   1.0     0.445986     0.215004     0.528977  Biso 1.000000     C
    C   1.0     0.945808     0.215271     0.528893  Biso 1.000000     C
    C   1.0     0.402822     0.117926     0.374361  Biso 1.000000     C
    C   1.0     0.902756     0.118075     0.374308  Biso 1.000000     C
    C   1.0     0.464963     0.262740     0.596798  Biso 1.000000     C
    C   1.0     0.964807     0.262982     0.596716  Biso 1.000000     C
    C   1.0     0.208658     0.742946     0.552156  Biso 1.000000     C
    C   1.0     0.708517     0.743049     0.552092  Biso 1.000000     C
    C   1.0     0.304243     0.284787     0.529012  Biso 1.000000     C
    C   1.0     0.804013     0.284984     0.528936  Biso 1.000000     C
    C   1.0     0.489773     0.367845     0.005642  Biso 1.000000     C
    C   1.0     0.989786     0.367939     0.005570  Biso 1.000000     C
    C   1.0     0.062556     0.807570     0.622331  Biso 1.000000     C
    C   1.0     0.562474     0.807736     0.622262  Biso 1.000000     C
    C   1.0     0.479984     0.611706     0.340182  Biso 1.000000     C
    C   1.0     0.980019     0.611619     0.340234  Biso 1.000000     C
    C   1.0     0.079127     0.844694     0.752979  Biso 1.000000     C
    C   1.0     0.579122     0.844739     0.752921  Biso 1.000000     C
    C   1.0     0.489754     0.632180     0.494387  Biso 1.000000     C
    C   1.0     0.989785     0.632061     0.494455  Biso 1.000000     C
    C   1.0     0.312622     0.307613     0.377789  Biso 1.000000     C
    C   1.0     0.812493     0.307692     0.377713  Biso 1.000000     C
    C   1.0     0.097248     0.118035     0.874263  Biso 1.000000     C
    C   1.0     0.597210     0.117919     0.874318  Biso 1.000000     C
    C   1.0     0.285231     0.237071     0.596829  Biso 1.000000     C
    C   1.0     0.785044     0.237250     0.596764  Biso 1.000000     C
    C   1.0     0.291484     0.256963     0.447923  Biso 1.000000     C
    C   1.0     0.791350     0.257053     0.447851  Biso 1.000000     C
    C   1.0     0.230028     0.111636     0.659847  Biso 1.000000     C
    C   1.0     0.730001     0.111684     0.659817  Biso 1.000000     C
    C   1.0     0.079122     0.155310     0.746996  Biso 1.000000     C
    C   1.0     0.579131     0.155283     0.747061  Biso 1.000000     C
    C   1.0     0.035203     0.737017     0.403294  Biso 1.000000     C
    C   1.0     0.535032     0.737276     0.403217  Biso 1.000000     C
    C   1.0     0.479991     0.388282     0.159842  Biso 1.000000     C
    C   1.0     0.980023     0.388357     0.159786  Biso 1.000000     C
    C   1.0     0.347304     0.381980     0.374392  Biso 1.000000     C
    C   1.0     0.847206     0.382028     0.374323  Biso 1.000000     C
    C   1.0     0.329109     0.655276     0.252921  Biso 1.000000     C
    C   1.0     0.829095     0.655292     0.252958  Biso 1.000000     C
    C   1.0     0.054200     0.784729     0.471117  Biso 1.000000     C
    C   1.0     0.554005     0.785014     0.471038  Biso 1.000000     C
    C   1.0     0.329130     0.344752     0.247127  Biso 1.000000     C
    C   1.0     0.829096     0.344751     0.247055  Biso 1.000000     C
    C   1.0     0.009197     0.679130     0.562683  Biso 1.000000     C
    C   1.0     0.509169     0.679266     0.562611  Biso 1.000000     C
    C   1.0     0.239853     0.132084     0.505647  Biso 1.000000     C
    C   1.0     0.739824     0.132094     0.505607  Biso 1.000000     C
    C   1.0     0.054270     0.215287     0.028861  Biso 1.000000     C
    C   1.0     0.554076     0.215011     0.028947  Biso 1.000000     C
    C   1.0     0.002150     0.660419     0.413888  Biso 1.000000     C
    C   1.0     0.502087     0.660579     0.413818  Biso 1.000000     C
    C   1.0     0.259268     0.820853     0.062587  Biso 1.000000     C
    C   1.0     0.759269     0.820869     0.062604  Biso 1.000000     C
    C   1.0     0.002183     0.339580     0.086127  Biso 1.000000     C
    C   1.0     0.502123     0.339432     0.086201  Biso 1.000000     C
    C   1.0     0.252209     0.839532     0.913803  Biso 1.000000     C
    C   1.0     0.752143     0.839457     0.913816  Biso 1.000000     C
    C   1.0     0.041430     0.756901     0.552203  Biso 1.000000     C
    C   1.0     0.541307     0.757120     0.552126  Biso 1.000000     C
    C   1.0     0.252209     0.160448     0.586218  Biso 1.000000     C
    C   1.0     0.752120     0.160533     0.586172  Biso 1.000000     C
    C   1.0     0.347293     0.618006     0.125665  Biso 1.000000     C
    C   1.0     0.847232     0.617977     0.125702  Biso 1.000000     C
    C   1.0     0.285260     0.762910     0.903210  Biso 1.000000     C
    C   1.0     0.785077     0.762723     0.903234  Biso 1.000000     C
    C   1.0     0.009207     0.320881     0.937338  Biso 1.000000     C
    C   1.0     0.509195     0.320767     0.937415  Biso 1.000000     C
    C   1.0     0.239810     0.867892     0.994367  Biso 1.000000     C
    C   1.0     0.739854     0.867933     0.994376  Biso 1.000000     C
    C   1.0     0.304286     0.715219     0.971038  Biso 1.000000     C
    C   1.0     0.804047     0.714997     0.971070  Biso 1.000000     C
    C   1.0     0.259302     0.179151     0.437429  Biso 1.000000     C
    C   1.0     0.759241     0.179172     0.437376  Biso 1.000000     C
    C   1.0     0.291466     0.743029     0.052109  Biso 1.000000     C
    C   1.0     0.791390     0.742975     0.052140  Biso 1.000000     C
    C   1.0     0.062586     0.192446     0.877654  Biso 1.000000     C
    C   1.0     0.562515     0.192294     0.877730  Biso 1.000000     C
    C   1.0     0.097254     0.881923     0.625701  Biso 1.000000     C
    C   1.0     0.597180     0.882080     0.625654  Biso 1.000000     C
    C   1.0     0.035258     0.262980     0.096700  Biso 1.000000     C
    C   1.0     0.535094     0.262736     0.096783  Biso 1.000000     C
    C   1.0     0.312631     0.692416     0.122254  Biso 1.000000     C
    C   1.0     0.812513     0.692328     0.122288  Biso 1.000000     C
    C   1.0     0.230015     0.888324     0.840167  Biso 1.000000     C
    C   1.0     0.730002     0.888289     0.840173  Biso 1.000000     C
    C   1.0     0.041444     0.243090     0.947797  Biso 1.000000     C
    C   1.0     0.541353     0.242907     0.947880  Biso 1.000000     C
    N   1.0     0.448352     0.213966     0.295802  Biso 1.000000     N
    N   1.0     0.948306     0.214069     0.295722  Biso 1.000000     N
    N   1.0     0.392749     0.904215     0.207021  Biso 1.000000     N
    N   1.0     0.892753     0.904166     0.207071  Biso 1.000000     N
    N   1.0     0.198356     0.285970     0.795779  Biso 1.000000     N
    N   1.0     0.698323     0.285965     0.795813  Biso 1.000000     N
    N   1.0     0.142762     0.404187     0.792977  Biso 1.000000     N
    N   1.0     0.642731     0.404184     0.793014  Biso 1.000000     N
    N   1.0     0.392754     0.095788     0.293034  Biso 1.000000     N
    N   1.0     0.892745     0.095851     0.292989  Biso 1.000000     N
    N   1.0     0.448340     0.785999     0.204218  Biso 1.000000     N
    N   1.0     0.948307     0.785908     0.204304  Biso 1.000000     N
    N   1.0     0.142765     0.595794     0.707011  Biso 1.000000     N
    N   1.0     0.642716     0.595810     0.706951  Biso 1.000000     N
    N   1.0     0.198365     0.713970     0.704245  Biso 1.000000     N
    N   1.0     0.698287     0.714014     0.704175  Biso 1.000000     N
    N   1.0     0.357292     0.404194     0.293063  Biso 1.000000     N
    N   1.0     0.857246     0.404202     0.292997  Biso 1.000000     N
    N   1.0     0.107267     0.904145     0.707021  Biso 1.000000     N
    N   1.0     0.607252     0.904213     0.706980  Biso 1.000000     N
    N   1.0     0.301718     0.285994     0.295840  Biso 1.000000     N
    N   1.0     0.801644     0.286027     0.295762  Biso 1.000000     N
    N   1.0     0.051705     0.785929     0.704288  Biso 1.000000     N
    N   1.0     0.551650     0.786039     0.704214  Biso 1.000000     N
    N   1.0     0.051706     0.214086     0.795705  Biso 1.000000     N
    N   1.0     0.551672     0.214001     0.795787  Biso 1.000000     N
    N   1.0     0.107260     0.095829     0.792938  Biso 1.000000     N
    N   1.0     0.607265     0.095785     0.792986  Biso 1.000000     N
    N   1.0     0.357285     0.595814     0.206997  Biso 1.000000     N
    N   1.0     0.857252     0.595809     0.207033  Biso 1.000000     N
    N   1.0     0.301691     0.714030     0.204198  Biso 1.000000     N
    N   1.0     0.801657     0.714026     0.204233  Biso 1.000000     N
    O   1.0     0.257679     0.137627     0.231993  Biso 1.000000     O
    O   1.0     0.757666     0.137580     0.231999  Biso 1.000000     O
    O   1.0     0.052610     0.455835     0.645681  Biso 1.000000     O
    O   1.0     0.552603     0.455791     0.645701  Biso 1.000000     O
    O   1.0     0.007657     0.362444     0.731921  Biso 1.000000     O
    O   1.0     0.507678     0.362413     0.731985  Biso 1.000000     O
    O   1.0     0.257670     0.862414     0.268041  Biso 1.000000     O
    O   1.0     0.757664     0.862462     0.268007  Biso 1.000000     O
    O   1.0     0.052603     0.544154     0.854318  Biso 1.000000     O
    O   1.0     0.552599     0.544199     0.854296  Biso 1.000000     O
    O   1.0     0.007652     0.637572     0.768080  Biso 1.000000     O
    O   1.0     0.507677     0.637605     0.768013  Biso 1.000000     O
    O   1.0     0.302600     0.044203     0.145715  Biso 1.000000     O
    O   1.0     0.802605     0.044185     0.145711  Biso 1.000000     O
    O   1.0     0.302593     0.955803     0.354312  Biso 1.000000     O
    O   1.0     0.802594     0.955819     0.354305  Biso 1.000000     O
    O   1.0     0.242349     0.137533     0.732006  Biso 1.000000     O
    O   1.0     0.742344     0.137582     0.731967  Biso 1.000000     O
    O   1.0     0.197420     0.044178     0.645706  Biso 1.000000     O
    O   1.0     0.697421     0.044191     0.645698  Biso 1.000000     O
    O   1.0     0.447412     0.544207     0.354310  Biso 1.000000     O
    O   1.0     0.947404     0.544159     0.354329  Biso 1.000000     O
    O   1.0     0.492337     0.362389     0.231995  Biso 1.000000     O
    O   1.0     0.992363     0.362423     0.231929  Biso 1.000000     O
    O   1.0     0.492335     0.637588     0.268027  Biso 1.000000     O
    O   1.0     0.992357     0.637551     0.268089  Biso 1.000000     O
    O   1.0     0.197409     0.955810     0.854299  Biso 1.000000     O
    O   1.0     0.697413     0.955795     0.854297  Biso 1.000000     O
    O   1.0     0.447414     0.455798     0.145714  Biso 1.000000     O
    O   1.0     0.947411     0.455841     0.145691  Biso 1.000000     O
    O   1.0     0.242348     0.862414     0.768011  Biso 1.000000     O
    O   1.0     0.742336     0.862373     0.768020  Biso 1.000000     O
   Zn   1.0     0.087906     0.500000     0.749995  Biso 1.000000    Zn
   Zn   1.0     0.587900     0.500001     0.749993  Biso 1.000000    Zn
   Zn   1.0     0.337898     0.000011     0.250018  Biso 1.000000    Zn
   Zn   1.0     0.837921     0.000013     0.250017  Biso 1.000000    Zn
   Zn   1.0     0.162098    -0.000018     0.749993  Biso 1.000000    Zn
   Zn   1.0     0.662120    -0.000015     0.749993  Biso 1.000000    Zn
   Zn   1.0     0.412114     0.499995     0.250018  Biso 1.000000    Zn
   Zn   1.0     0.912108     0.499995     0.250015  Biso 1.000000    Zn
