#======================================================================

# CRYSTAL DATA

#----------------------------------------------------------------------

data_VESTA_phase_1


_pd_phase_name                         MOF
_cell_length_a                         14.23300
_cell_length_b                         21.84900
_cell_length_c                         21.84900
_cell_angle_alpha                      116.21100
_cell_angle_beta                       110.13400
_cell_angle_gamma                      69.91300
_symmetry_space_group_name_H-M         "P 1"
_symmetry_Int_Tables_number            1

loop_
_symmetry_equiv_pos_as_xyz
   "x, y, z"

loop_
   _atom_site_label
   _atom_site_occupancy
   _atom_site_fract_x
   _atom_site_fract_y
   _atom_site_fract_z
   _atom_site_adp_type
   _atom_site_B_iso_or_equiv
   _atom_site_type_symbol
    H   1.0     0.265228     0.275623     0.134783  Biso 1.000000     H
    H   1.0     0.266218     0.275861     0.635361  Biso 1.000000     H
    H   1.0     0.265541     0.775893     0.135237  Biso 1.000000     H
    H   1.0     0.265980     0.775539     0.634851  Biso 1.000000     H
    H   1.0     0.765182     0.275623     0.134794  Biso 1.000000     H
    H   1.0     0.766164     0.275800     0.635328  Biso 1.000000     H
    H   1.0     0.765468     0.775817     0.135225  Biso 1.000000     H
    H   1.0     0.766005     0.775590     0.634866  Biso 1.000000     H
    H   1.0     0.181606     0.349900     0.112616  Biso 1.000000     H
    H   1.0     0.181974     0.349974     0.613143  Biso 1.000000     H
    H   1.0     0.181731     0.850072     0.112975  Biso 1.000000     H
    H   1.0     0.181956     0.849749     0.612723  Biso 1.000000     H
    H   1.0     0.681564     0.349893     0.112611  Biso 1.000000     H
    H   1.0     0.682055     0.349974     0.613168  Biso 1.000000     H
    H   1.0     0.681814     0.850059     0.113015  Biso 1.000000     H
    H   1.0     0.681910     0.849762     0.612695  Biso 1.000000     H
    H   1.0     0.134974     0.272799     0.085428  Biso 1.000000     H
    H   1.0     0.135921     0.272711     0.586280  Biso 1.000000     H
    H   1.0     0.135289     0.772931     0.085948  Biso 1.000000     H
    H   1.0     0.135663     0.772554     0.585732  Biso 1.000000     H
    H   1.0     0.634939     0.272788     0.085416  Biso 1.000000     H
    H   1.0     0.635838     0.272767     0.586255  Biso 1.000000     H
    H   1.0     0.635191     0.772980     0.085930  Biso 1.000000     H
    H   1.0     0.635702     0.772544     0.585747  Biso 1.000000     H
    H   1.0     0.485519     0.135019     0.275762  Biso 1.000000     H
    H   1.0     0.485765     0.134639     0.775479  Biso 1.000000     H
    H   1.0     0.485215     0.634869     0.275555  Biso 1.000000     H
    H   1.0     0.484719     0.634904     0.775441  Biso 1.000000     H
    H   1.0     0.985422     0.135061     0.275868  Biso 1.000000     H
    H   1.0     0.985729     0.134640     0.775472  Biso 1.000000     H
    H   1.0     0.985226     0.634884     0.275591  Biso 1.000000     H
    H   1.0     0.984699     0.634936     0.775599  Biso 1.000000     H
    H   1.0     0.068880     0.112773     0.350146  Biso 1.000000     H
    H   1.0     0.068809     0.112562     0.849947  Biso 1.000000     H
    H   1.0     0.068732     0.612817     0.349982  Biso 1.000000     H
    H   1.0     0.068345     0.612821     0.849930  Biso 1.000000     H
    H   1.0     0.568758     0.112833     0.350140  Biso 1.000000     H
    H   1.0     0.568822     0.112546     0.849948  Biso 1.000000     H
    H   1.0     0.568651     0.612834     0.349977  Biso 1.000000     H
    H   1.0     0.568132     0.612924     0.849895  Biso 1.000000     H
    H   1.0     0.115518     0.085484     0.273056  Biso 1.000000     H
    H   1.0     0.115903     0.085072     0.773002  Biso 1.000000     H
    H   1.0     0.115443     0.585520     0.272920  Biso 1.000000     H
    H   1.0     0.114892     0.585578     0.772812  Biso 1.000000     H
    H   1.0     0.615637     0.085436     0.273126  Biso 1.000000     H
    H   1.0     0.615920     0.085052     0.773005  Biso 1.000000     H
    H   1.0     0.615426     0.585491     0.272933  Biso 1.000000     H
    H   1.0     0.614974     0.585598     0.772880  Biso 1.000000     H
    H   1.0     0.233939     0.224401     0.365105  Biso 1.000000     H
    H   1.0     0.234466     0.224199     0.864789  Biso 1.000000     H
    H   1.0     0.233778     0.724173     0.364638  Biso 1.000000     H
    H   1.0     0.234756     0.724389     0.865220  Biso 1.000000     H
    H   1.0     0.733967     0.224450     0.365119  Biso 1.000000     H
    H   1.0     0.734396     0.224123     0.864778  Biso 1.000000     H
    H   1.0     0.733728     0.724113     0.364607  Biso 1.000000     H
    H   1.0     0.734713     0.724389     0.865231  Biso 1.000000     H
    H   1.0     0.318031     0.150226     0.387271  Biso 1.000000     H
    H   1.0     0.318128     0.149959     0.887000  Biso 1.000000     H
    H   1.0     0.317895     0.650006     0.386805  Biso 1.000000     H
    H   1.0     0.318367     0.650116     0.887402  Biso 1.000000     H
    H   1.0     0.817987     0.150237     0.387244  Biso 1.000000     H
    H   1.0     0.818215     0.149946     0.887042  Biso 1.000000     H
    H   1.0     0.817978     0.650006     0.386832  Biso 1.000000     H
    H   1.0     0.818327     0.650109     0.887398  Biso 1.000000     H
    H   1.0     0.364243     0.227443     0.414225  Biso 1.000000     H
    H   1.0     0.364741     0.227042     0.914086  Biso 1.000000     H
    H   1.0     0.364104     0.727214     0.413709  Biso 1.000000     H
    H   1.0     0.364999     0.727219     0.914599  Biso 1.000000     H
    H   1.0     0.864284     0.227431     0.414240  Biso 1.000000     H
    H   1.0     0.864645     0.227094     0.914070  Biso 1.000000     H
    H   1.0     0.864023     0.727270     0.413687  Biso 1.000000     H
    H   1.0     0.864967     0.727208     0.914588  Biso 1.000000     H
    H   1.0     0.015244     0.365062     0.224388  Biso 1.000000     H
    H   1.0     0.014728     0.365114     0.724400  Biso 1.000000     H
    H   1.0     0.014201     0.865355     0.224510  Biso 1.000000     H
    H   1.0     0.014541     0.864930     0.724123  Biso 1.000000     H
    H   1.0     0.515221     0.365096     0.224548  Biso 1.000000     H
    H   1.0     0.514738     0.365129     0.724437  Biso 1.000000     H
    H   1.0     0.514162     0.865358     0.224504  Biso 1.000000     H
    H   1.0     0.514440     0.864973     0.724229  Biso 1.000000     H
    H   1.0     0.431823     0.387071     0.150089  Biso 1.000000     H
    H   1.0     0.431300     0.387160     0.650013  Biso 1.000000     H
    H   1.0     0.431133     0.887445     0.150026  Biso 1.000000     H
    H   1.0     0.431182     0.887159     0.649855  Biso 1.000000     H
    H   1.0     0.931608     0.387176     0.150054  Biso 1.000000     H
    H   1.0     0.931218     0.387178     0.650008  Biso 1.000000     H
    H   1.0     0.931150     0.887428     0.150027  Biso 1.000000     H
    H   1.0     0.931062     0.887217     0.649849  Biso 1.000000     H
    H   1.0     0.384964     0.414400     0.227098  Biso 1.000000     H
    H   1.0     0.384526     0.414505     0.727058  Biso 1.000000     H
    H   1.0     0.384004     0.914946     0.226956  Biso 1.000000     H
    H   1.0     0.384324     0.914554     0.726876  Biso 1.000000     H
    H   1.0     0.885048     0.414419     0.227167  Biso 1.000000     H
    H   1.0     0.884510     0.414476     0.727072  Biso 1.000000     H
    H   1.0     0.884023     0.914924     0.226959  Biso 1.000000     H
    H   1.0     0.884447     0.914504     0.726947  Biso 1.000000     H
    C   1.0     0.232373     0.088701     0.486387  Biso 1.000000     C
    C   1.0     0.232415     0.088622     0.986244  Biso 1.000000     C
    C   1.0     0.232476     0.588560     0.486194  Biso 1.000000     C
    C   1.0     0.232372     0.588723     0.986464  Biso 1.000000     C
    C   1.0     0.732477     0.088678     0.486410  Biso 1.000000     C
    C   1.0     0.732449     0.088583     0.986270  Biso 1.000000     C
    C   1.0     0.732461     0.588552     0.486197  Biso 1.000000     C
    C   1.0     0.732429     0.588698     0.986453  Biso 1.000000     C
    C   1.0     0.497151     0.180019     0.080002  Biso 1.000000     C
    C   1.0     0.497386     0.179916     0.580054  Biso 1.000000     C
    C   1.0     0.497318     0.679983     0.080287  Biso 1.000000     C
    C   1.0     0.497273     0.679783     0.579676  Biso 1.000000     C
    C   1.0     0.997151     0.180046     0.080034  Biso 1.000000     C
    C   1.0     0.997351     0.179937     0.580064  Biso 1.000000     C
    C   1.0     0.997266     0.679947     0.080306  Biso 1.000000     C
    C   1.0     0.997240     0.679710     0.579646  Biso 1.000000     C
    C   1.0     0.201912     0.292768     0.095870  Biso 1.000000     C
    C   1.0     0.202589     0.292847     0.596490  Biso 1.000000     C
    C   1.0     0.202143     0.792945     0.096303  Biso 1.000000     C
    C   1.0     0.202431     0.792617     0.596001  Biso 1.000000     C
    C   1.0     0.701878     0.292761     0.095872  Biso 1.000000     C
    C   1.0     0.702571     0.292844     0.596476  Biso 1.000000     C
    C   1.0     0.702119     0.792930     0.096307  Biso 1.000000     C
    C   1.0     0.702438     0.792632     0.596001  Biso 1.000000     C
    C   1.0     0.017779     0.486280     0.088655  Biso 1.000000     C
    C   1.0     0.017503     0.486302     0.588638  Biso 1.000000     C
    C   1.0     0.017561     0.986420     0.088699  Biso 1.000000     C
    C   1.0     0.017730     0.986187     0.588611  Biso 1.000000     C
    C   1.0     0.517598     0.486299     0.088638  Biso 1.000000     C
    C   1.0     0.517560     0.486284     0.588633  Biso 1.000000     C
    C   1.0     0.517568     0.986439     0.088710  Biso 1.000000     C
    C   1.0     0.517711     0.986176     0.588603  Biso 1.000000     C
    C   1.0     0.252897     0.080541     0.179919  Biso 1.000000     C
    C   1.0     0.253086     0.080286     0.679795  Biso 1.000000     C
    C   1.0     0.253059     0.580209     0.179906  Biso 1.000000     C
    C   1.0     0.252718     0.580157     0.679680  Biso 1.000000     C
    C   1.0     0.752881     0.080539     0.179905  Biso 1.000000     C
    C   1.0     0.753061     0.080250     0.679812  Biso 1.000000     C
    C   1.0     0.753070     0.580209     0.179883  Biso 1.000000     C
    C   1.0     0.752706     0.580179     0.679680  Biso 1.000000     C
    C   1.0     0.048529     0.096063     0.293001  Biso 1.000000     C
    C   1.0     0.048734     0.095717     0.792793  Biso 1.000000     C
    C   1.0     0.048459     0.596008     0.292829  Biso 1.000000     C
    C   1.0     0.047975     0.596042     0.792779  Biso 1.000000     C
    C   1.0     0.548551     0.096054     0.292990  Biso 1.000000     C
    C   1.0     0.548744     0.095706     0.792795  Biso 1.000000     C
    C   1.0     0.548413     0.596000     0.292823  Biso 1.000000     C
    C   1.0     0.547947     0.596067     0.792738  Biso 1.000000     C
    C   1.0     0.267470     0.411323     0.013556  Biso 1.000000     C
    C   1.0     0.267518     0.411426     0.513781  Biso 1.000000     C
    C   1.0     0.267500     0.911422     0.013734  Biso 1.000000     C
    C   1.0     0.267451     0.911308     0.513557  Biso 1.000000     C
    C   1.0     0.767524     0.411299     0.013546  Biso 1.000000     C
    C   1.0     0.767504     0.411418     0.513784  Biso 1.000000     C
    C   1.0     0.767535     0.911384     0.013761  Biso 1.000000     C
    C   1.0     0.767555     0.911285     0.513582  Biso 1.000000     C
    C   1.0     0.002710     0.320285     0.420328  Biso 1.000000     C
    C   1.0     0.002662     0.320058     0.919709  Biso 1.000000     C
    C   1.0     0.002589     0.820032     0.419898  Biso 1.000000     C
    C   1.0     0.002791     0.819969     0.919978  Biso 1.000000     C
    C   1.0     0.502680     0.320213     0.420296  Biso 1.000000     C
    C   1.0     0.502613     0.320022     0.919728  Biso 1.000000     C
    C   1.0     0.502556     0.820051     0.419909  Biso 1.000000     C
    C   1.0     0.502788     0.820001     0.920011  Biso 1.000000     C
    C   1.0     0.297505     0.207356     0.403969  Biso 1.000000     C
    C   1.0     0.297817     0.207088     0.903708  Biso 1.000000     C
    C   1.0     0.297374     0.707135     0.403492  Biso 1.000000     C
    C   1.0     0.298057     0.707248     0.904142  Biso 1.000000     C
    C   1.0     0.797515     0.207369     0.403968  Biso 1.000000     C
    C   1.0     0.797795     0.207073     0.903713  Biso 1.000000     C
    C   1.0     0.797358     0.707132     0.403481  Biso 1.000000     C
    C   1.0     0.798026     0.707241     0.904144  Biso 1.000000     C
    C   1.0     0.482215     0.013801     0.411371  Biso 1.000000     C
    C   1.0     0.482386     0.013575     0.911281  Biso 1.000000     C
    C   1.0     0.482418     0.513705     0.411358  Biso 1.000000     C
    C   1.0     0.482311     0.513706     0.911346  Biso 1.000000     C
    C   1.0     0.982192     0.013791     0.411362  Biso 1.000000     C
    C   1.0     0.982393     0.013591     0.911292  Biso 1.000000     C
    C   1.0     0.982475     0.513686     0.411355  Biso 1.000000     C
    C   1.0     0.982135     0.513724     0.911327  Biso 1.000000     C
    C   1.0     0.247247     0.419814     0.320289  Biso 1.000000     C
    C   1.0     0.246871     0.419801     0.820131  Biso 1.000000     C
    C   1.0     0.246881     0.919727     0.320161  Biso 1.000000     C
    C   1.0     0.247068     0.919471     0.820091  Biso 1.000000     C
    C   1.0     0.747233     0.419833     0.320289  Biso 1.000000     C
    C   1.0     0.746878     0.419800     0.820107  Biso 1.000000     C
    C   1.0     0.746852     0.919691     0.320177  Biso 1.000000     C
    C   1.0     0.747050     0.919468     0.820081  Biso 1.000000     C
    C   1.0     0.451997     0.403931     0.207246  Biso 1.000000     C
    C   1.0     0.451538     0.403996     0.707168  Biso 1.000000     C
    C   1.0     0.451192     0.904289     0.207179  Biso 1.000000     C
    C   1.0     0.451401     0.903938     0.707005  Biso 1.000000     C
    C   1.0     0.951971     0.403956     0.207206  Biso 1.000000     C
    C   1.0     0.951492     0.403988     0.707161  Biso 1.000000     C
    C   1.0     0.951205     0.904277     0.207180  Biso 1.000000     C
    C   1.0     0.951426     0.903927     0.706995  Biso 1.000000     C
    N   1.0     0.222963     0.141216     0.480062  Biso 1.000000     N
    N   1.0     0.223049     0.141056     0.979778  Biso 1.000000     N
    N   1.0     0.223139     0.640990     0.479734  Biso 1.000000     N
    N   1.0     0.223074     0.641215     0.980134  Biso 1.000000     N
    N   1.0     0.723200     0.141174     0.480094  Biso 1.000000     N
    N   1.0     0.723126     0.141033     0.979849  Biso 1.000000     N
    N   1.0     0.723140     0.640983     0.479743  Biso 1.000000     N
    N   1.0     0.723076     0.641197     0.980118  Biso 1.000000     N
    N   1.0     0.421321     0.213114     0.055838  Biso 1.000000     N
    N   1.0     0.421595     0.213064     0.555920  Biso 1.000000     N
    N   1.0     0.421497     0.713145     0.056197  Biso 1.000000     N
    N   1.0     0.421508     0.712897     0.555477  Biso 1.000000     N
    N   1.0     0.921361     0.213168     0.055867  Biso 1.000000     N
    N   1.0     0.921564     0.213093     0.555938  Biso 1.000000     N
    N   1.0     0.921436     0.713084     0.056196  Biso 1.000000     N
    N   1.0     0.921473     0.712791     0.555412  Biso 1.000000     N
    N   1.0     0.027279     0.479829     0.141126  Biso 1.000000     N
    N   1.0     0.026787     0.479859     0.641074  Biso 1.000000     N
    N   1.0     0.026890     0.980034     0.141174  Biso 1.000000     N
    N   1.0     0.027179     0.979667     0.641037  Biso 1.000000     N
    N   1.0     0.526980     0.479863     0.141096  Biso 1.000000     N
    N   1.0     0.526890     0.479830     0.641072  Biso 1.000000     N
    N   1.0     0.526906     0.980063     0.141192  Biso 1.000000     N
    N   1.0     0.527144     0.979643     0.641019  Biso 1.000000     N
    N   1.0     0.328683     0.056449     0.213118  Biso 1.000000     N
    N   1.0     0.328921     0.056135     0.712908  Biso 1.000000     N
    N   1.0     0.328872     0.556040     0.213020  Biso 1.000000     N
    N   1.0     0.328456     0.556033     0.712887  Biso 1.000000     N
    N   1.0     0.828661     0.056452     0.213112  Biso 1.000000     N
    N   1.0     0.828872     0.056110     0.712952  Biso 1.000000     N
    N   1.0     0.828889     0.556045     0.212998  Biso 1.000000     N
    N   1.0     0.828433     0.556048     0.712889  Biso 1.000000     N
    N   1.0     0.276832     0.358823     0.019892  Biso 1.000000     N
    N   1.0     0.276829     0.358997     0.520237  Biso 1.000000     N
    N   1.0     0.276818     0.858975     0.020158  Biso 1.000000     N
    N   1.0     0.276734     0.858812     0.519874  Biso 1.000000     N
    N   1.0     0.776832     0.358806     0.019878  Biso 1.000000     N
    N   1.0     0.776833     0.358989     0.520245  Biso 1.000000     N
    N   1.0     0.776897     0.858952     0.020229  Biso 1.000000     N
    N   1.0     0.776970     0.858771     0.519909  Biso 1.000000     N
    N   1.0     0.078475     0.287203     0.444564  Biso 1.000000     N
    N   1.0     0.078495     0.286921     0.943817  Biso 1.000000     N
    N   1.0     0.078381     0.786878     0.444022  Biso 1.000000     N
    N   1.0     0.078577     0.786845     0.944146  Biso 1.000000     N
    N   1.0     0.578442     0.287098     0.444496  Biso 1.000000     N
    N   1.0     0.578433     0.286858     0.943816  Biso 1.000000     N
    N   1.0     0.578348     0.786903     0.444041  Biso 1.000000     N
    N   1.0     0.578613     0.786904     0.944177  Biso 1.000000     N
    N   1.0     0.472791     0.020336     0.358957  Biso 1.000000     N
    N   1.0     0.473038     0.019951     0.858798  Biso 1.000000     N
    N   1.0     0.473081     0.520159     0.358918  Biso 1.000000     N
    N   1.0     0.472949     0.520138     0.858889  Biso 1.000000     N
    N   1.0     0.972753     0.020314     0.358939  Biso 1.000000     N
    N   1.0     0.973055     0.019976     0.858815  Biso 1.000000     N
    N   1.0     0.973184     0.520128     0.358917  Biso 1.000000     N
    N   1.0     0.972643     0.520175     0.858858  Biso 1.000000     N
    N   1.0     0.171519     0.443944     0.287080  Biso 1.000000     N
    N   1.0     0.171054     0.443963     0.787012  Biso 1.000000     N
    N   1.0     0.171069     0.943872     0.287025  Biso 1.000000     N
    N   1.0     0.171288     0.943551     0.786878  Biso 1.000000     N
    N   1.0     0.671493     0.443957     0.287083  Biso 1.000000     N
    N   1.0     0.671071     0.443968     0.786987  Biso 1.000000     N
    N   1.0     0.671021     0.943848     0.287065  Biso 1.000000     N
    N   1.0     0.671264     0.943554     0.786877  Biso 1.000000     N
   Sn   1.0     0.249909     0.249962    -0.000198  Biso 1.000000    Sn
   Sn   1.0     0.249999     0.250107     0.500213  Biso 1.000000    Sn
   Sn   1.0     0.249939     0.749889     0.499761  Biso 1.000000    Sn
   Sn   1.0     0.250025     0.750068     0.000183  Biso 1.000000    Sn
   Sn   1.0     0.749907     0.249947    -0.000186  Biso 1.000000    Sn
   Sn   1.0     0.750009     0.250094     0.500208  Biso 1.000000    Sn
   Sn   1.0     0.750022     0.750054     0.000194  Biso 1.000000    Sn
   Sn   1.0     0.749948     0.749876     0.499758  Biso 1.000000    Sn
   Sn   1.0    -0.000141     0.000182     0.250072  Biso 1.000000    Sn
   Sn   1.0     0.000092    -0.000169     0.749911  Biso 1.000000    Sn
   Sn   1.0     0.000223     0.499983     0.250023  Biso 1.000000    Sn
   Sn   1.0    -0.000265     0.500014     0.749965  Biso 1.000000    Sn
   Sn   1.0     0.499864     0.000184     0.250081  Biso 1.000000    Sn
   Sn   1.0     0.500075    -0.000170     0.749903  Biso 1.000000    Sn
   Sn   1.0     0.500145     0.499989     0.250034  Biso 1.000000    Sn
   Sn   1.0     0.499801     0.500009     0.749954  Biso 1.000000    Sn
   Au   1.0     0.249963     0.000038    -0.000009  Biso 1.000000    Au
   Au   1.0     0.249939     0.000011     0.499974  Biso 1.000000    Au
   Au   1.0     0.249896     0.500029     0.000002  Biso 1.000000    Au
   Au   1.0     0.250003     0.499991     0.499987  Biso 1.000000    Au
   Au   1.0     0.749982    -0.000010    -0.000005  Biso 1.000000    Au
   Au   1.0     0.749981    -0.000004     0.499994  Biso 1.000000    Au
   Au   1.0     0.749991     0.499997    -0.000009  Biso 1.000000    Au
   Au   1.0     0.749983     0.499984     0.499989  Biso 1.000000    Au
   Au   1.0    -0.000017     0.000018    -0.000012  Biso 1.000000    Au
   Au   1.0    -0.000040    -0.000002     0.499985  Biso 1.000000    Au
   Au   1.0    -0.000041     0.500003    -0.000018  Biso 1.000000    Au
   Au   1.0    -0.000003     0.499995     0.499997  Biso 1.000000    Au
   Au   1.0     0.499978     0.000019    -0.000012  Biso 1.000000    Au
   Au   1.0     0.499958    -0.000003     0.499986  Biso 1.000000    Au
   Au   1.0     0.499949     0.500004    -0.000018  Biso 1.000000    Au
   Au   1.0     0.499992     0.499995     0.499997  Biso 1.000000    Au
   Au   1.0     0.125030     0.125604     0.125291  Biso 1.000000    Au
   Au   1.0     0.125208     0.125425     0.625248  Biso 1.000000    Au
   Au   1.0     0.125166     0.625407     0.125424  Biso 1.000000    Au
   Au   1.0     0.124992     0.625240     0.624971  Biso 1.000000    Au
   Au   1.0     0.625027     0.125593     0.125266  Biso 1.000000    Au
   Au   1.0     0.625214     0.125395     0.625247  Biso 1.000000    Au
   Au   1.0     0.625186     0.625417     0.125400  Biso 1.000000    Au
   Au   1.0     0.624996     0.625281     0.624978  Biso 1.000000    Au
   Au   1.0     0.374957     0.374713     0.374992  Biso 1.000000    Au
   Au   1.0     0.374750     0.374592     0.874616  Biso 1.000000    Au
   Au   1.0     0.374728     0.874575     0.374720  Biso 1.000000    Au
   Au   1.0     0.374918     0.874425     0.874741  Biso 1.000000    Au
   Au   1.0     0.874959     0.374752     0.375000  Biso 1.000000    Au
   Au   1.0     0.874765     0.374601     0.874591  Biso 1.000000    Au
   Au   1.0     0.874729     0.874546     0.374718  Biso 1.000000    Au
   Au   1.0     0.874915     0.874410     0.874716  Biso 1.000000    Au
