#======================================================================

# CRYSTAL DATA

#----------------------------------------------------------------------

data_VESTA_phase_1


_pd_phase_name                         MOF
_cell_length_a                         15.40500
_cell_length_b                         21.44900
_cell_length_c                         21.44000
_cell_angle_alpha                      119.83600
_cell_angle_beta                       90.02000
_cell_angle_gamma                      89.97400
_symmetry_space_group_name_H-M         "P 1"
_symmetry_Int_Tables_number            1

loop_
_symmetry_equiv_pos_as_xyz
   "x, y, z"

loop_
   _atom_site_label
   _atom_site_occupancy
   _atom_site_fract_x
   _atom_site_fract_y
   _atom_site_fract_z
   _atom_site_adp_type
   _atom_site_B_iso_or_equiv
   _atom_site_type_symbol
    H   1.0     0.350830     0.748227     0.155193  Biso 1.000000     H
    H   1.0     0.850327     0.748201     0.155137  Biso 1.000000     H
    H   1.0     0.417265     0.768610     0.063050  Biso 1.000000     H
    H   1.0     0.916998     0.768612     0.063092  Biso 1.000000     H
    H   1.0     0.078004     0.634792     0.160055  Biso 1.000000     H
    H   1.0     0.578488     0.634529     0.159657  Biso 1.000000     H
    H   1.0     0.145504     0.653410     0.066182  Biso 1.000000     H
    H   1.0     0.645790     0.653193     0.065722  Biso 1.000000     H
    H   1.0     0.016950     0.407389     0.252436  Biso 1.000000     H
    H   1.0     0.517063     0.407507     0.252502  Biso 1.000000     H
    H   1.0     0.083630     0.294724     0.231318  Biso 1.000000     H
    H   1.0     0.583666     0.294795     0.231330  Biso 1.000000     H
    H   1.0     0.245695     0.524276     0.364388  Biso 1.000000     H
    H   1.0     0.745850     0.524285     0.364500  Biso 1.000000     H
    H   1.0     0.313272     0.411551     0.344877  Biso 1.000000     H
    H   1.0     0.813363     0.411507     0.344900  Biso 1.000000     H
    H   1.0     0.183571     0.845441     0.593225  Biso 1.000000     H
    H   1.0     0.683556     0.845379     0.593094  Biso 1.000000     H
    H   1.0     0.249979     0.937438     0.705429  Biso 1.000000     H
    H   1.0     0.749989     0.937327     0.705291  Biso 1.000000     H
    H   1.0     0.411798     0.840398     0.475485  Biso 1.000000     H
    H   1.0     0.911745     0.840343     0.475316  Biso 1.000000     H
    H   1.0     0.479148     0.934074     0.587773  Biso 1.000000     H
    H   1.0     0.979137     0.933958     0.587611  Biso 1.000000     H
    H   1.0     0.350129     0.252216     0.845178  Biso 1.000000     H
    H   1.0     0.850177     0.252220     0.845194  Biso 1.000000     H
    H   1.0     0.416920     0.231731     0.937161  Biso 1.000000     H
    H   1.0     0.916960     0.231782     0.937202  Biso 1.000000     H
    H   1.0     0.077852     0.365351     0.840052  Biso 1.000000     H
    H   1.0     0.577853     0.365304     0.840023  Biso 1.000000     H
    H   1.0     0.145484     0.346703     0.933910  Biso 1.000000     H
    H   1.0     0.645499     0.346596     0.933841  Biso 1.000000     H
    H   1.0     0.015651     0.593719     0.747189  Biso 1.000000     H
    H   1.0     0.515656     0.593705     0.747142  Biso 1.000000     H
    H   1.0     0.082677     0.706128     0.768200  Biso 1.000000     H
    H   1.0     0.582680     0.706112     0.768155  Biso 1.000000     H
    H   1.0     0.244308     0.476234     0.635659  Biso 1.000000     H
    H   1.0     0.744325     0.476228     0.635634  Biso 1.000000     H
    H   1.0     0.312367     0.588732     0.655249  Biso 1.000000     H
    H   1.0     0.812389     0.588728     0.655236  Biso 1.000000     H
    H   1.0     0.183331     0.154647     0.407483  Biso 1.000000     H
    H   1.0     0.683470     0.154532     0.407394  Biso 1.000000     H
    H   1.0     0.249572     0.062732     0.295324  Biso 1.000000     H
    H   1.0     0.749722     0.062595     0.295283  Biso 1.000000     H
    H   1.0     0.412066     0.160041     0.524982  Biso 1.000000     H
    H   1.0     0.912110     0.159896     0.524976  Biso 1.000000     H
    H   1.0     0.479363     0.066496     0.412659  Biso 1.000000     H
    H   1.0     0.979409     0.066284     0.412691  Biso 1.000000     H
    H   1.0     0.315750     0.592659     0.845233  Biso 1.000000     H
    H   1.0     0.815894     0.592569     0.845108  Biso 1.000000     H
    H   1.0     0.249834     0.705033     0.937390  Biso 1.000000     H
    H   1.0     0.749994     0.704997     0.937245  Biso 1.000000     H
    H   1.0     0.086981     0.475711     0.840539  Biso 1.000000     H
    H   1.0     0.587023     0.475712     0.840390  Biso 1.000000     H
    H   1.0     0.020225     0.588130     0.934508  Biso 1.000000     H
    H   1.0     0.520273     0.588175     0.934290  Biso 1.000000     H
    H   1.0     0.149027     0.154965     0.748003  Biso 1.000000     H
    H   1.0     0.649066     0.154997     0.748019  Biso 1.000000     H
    H   1.0     0.082653     0.062800     0.768314  Biso 1.000000     H
    H   1.0     0.582688     0.062861     0.768382  Biso 1.000000     H
    H   1.0     0.421244     0.159682     0.634574  Biso 1.000000     H
    H   1.0     0.921253     0.159646     0.634519  Biso 1.000000     H
    H   1.0     0.354010     0.065721     0.653187  Biso 1.000000     H
    H   1.0     0.854031     0.065637     0.653062  Biso 1.000000     H
    H   1.0     0.483414     0.253251     0.407181  Biso 1.000000     H
    H   1.0     0.983417     0.253209     0.407159  Biso 1.000000     H
    H   1.0     0.417483     0.232705     0.294427  Biso 1.000000     H
    H   1.0     0.917486     0.232661     0.294400  Biso 1.000000     H
    H   1.0     0.254202     0.364752     0.523610  Biso 1.000000     H
    H   1.0     0.754215     0.364729     0.523592  Biso 1.000000     H
    H   1.0     0.187306     0.345731     0.410822  Biso 1.000000     H
    H   1.0     0.687321     0.345714     0.410802  Biso 1.000000     H
    H   1.0     0.316440     0.407311     0.154357  Biso 1.000000     H
    H   1.0     0.816339     0.407350     0.154346  Biso 1.000000     H
    H   1.0     0.250139     0.295219     0.062522  Biso 1.000000     H
    H   1.0     0.750149     0.295195     0.062467  Biso 1.000000     H
    H   1.0     0.087836     0.524861     0.159664  Biso 1.000000     H
    H   1.0     0.587565     0.524702     0.159613  Biso 1.000000     H
    H   1.0     0.020459     0.412577     0.066139  Biso 1.000000     H
    H   1.0     0.520339     0.412382     0.066009  Biso 1.000000     H
    H   1.0     0.149491     0.845138     0.252124  Biso 1.000000     H
    H   1.0     0.649016     0.845091     0.252129  Biso 1.000000     H
    H   1.0     0.082960     0.937344     0.231887  Biso 1.000000     H
    H   1.0     0.582702     0.937370     0.231884  Biso 1.000000     H
    H   1.0     0.421243     0.840583     0.365592  Biso 1.000000     H
    H   1.0     0.921704     0.840187     0.365313  Biso 1.000000     H
    H   1.0     0.354014     0.934601     0.346993  Biso 1.000000     H
    H   1.0     0.854276     0.934141     0.346756  Biso 1.000000     H
    H   1.0     0.483342     0.746902     0.593003  Biso 1.000000     H
    H   1.0     0.983454     0.746926     0.593091  Biso 1.000000     H
    H   1.0     0.417042     0.767818     0.705709  Biso 1.000000     H
    H   1.0     0.917084     0.767827     0.705771  Biso 1.000000     H
    H   1.0     0.254185     0.635617     0.476321  Biso 1.000000     H
    H   1.0     0.754306     0.635710     0.476340  Biso 1.000000     H
    H   1.0     0.186916     0.655005     0.589085  Biso 1.000000     H
    H   1.0     0.686981     0.655050     0.589067  Biso 1.000000     H
    C   1.0     0.416585     0.677506     0.218703  Biso 1.000000     C
    C   1.0     0.915972     0.677453     0.218803  Biso 1.000000     C
    C   1.0     0.459332     0.689048     0.162733  Biso 1.000000     C
    C   1.0     0.958799     0.689138     0.162910  Biso 1.000000     C
    C   1.0     0.415327     0.727122     0.135033  Biso 1.000000     C
    C   1.0     0.914888     0.727159     0.135109  Biso 1.000000     C
    C   1.0     0.453441     0.738364     0.082612  Biso 1.000000     C
    C   1.0     0.953138     0.738406     0.082721  Biso 1.000000     C
    C   1.0     0.042476     0.663050     0.137728  Biso 1.000000     C
    C   1.0     0.542931     0.662844     0.137405  Biso 1.000000     C
    C   1.0     0.080571     0.674254     0.085257  Biso 1.000000     C
    C   1.0     0.580902     0.674074     0.084914  Biso 1.000000     C
    C   1.0     0.036335     0.711709     0.056665  Biso 1.000000     C
    C   1.0     0.536582     0.711601     0.056440  Biso 1.000000     C
    C   1.0     0.019367     0.745718     0.957151  Biso 1.000000     C
    C   1.0     0.519414     0.745719     0.957028  Biso 1.000000     C
    C   1.0     0.083434     0.541244     0.323053  Biso 1.000000     C
    C   1.0     0.583610     0.541331     0.323187  Biso 1.000000     C
    C   1.0     0.126033     0.473450     0.310750  Biso 1.000000     C
    C   1.0     0.626171     0.473518     0.310850  Biso 1.000000     C
    C   1.0     0.081762     0.408017     0.272951  Biso 1.000000     C
    C   1.0     0.581870     0.408101     0.273011  Biso 1.000000     C
    C   1.0     0.120036     0.344276     0.261234  Biso 1.000000     C
    C   1.0     0.620096     0.344333     0.261265  Biso 1.000000     C
    C   1.0     0.210035     0.473927     0.336190  Biso 1.000000     C
    C   1.0     0.710168     0.473949     0.336274  Biso 1.000000     C
    C   1.0     0.248141     0.410169     0.324484  Biso 1.000000     C
    C   1.0     0.748232     0.410164     0.324527  Biso 1.000000     C
    C   1.0     0.203542     0.344502     0.287288  Biso 1.000000     C
    C   1.0     0.703597     0.344515     0.287304  Biso 1.000000     C
    C   1.0     0.186182     0.211379     0.254011  Biso 1.000000     C
    C   1.0     0.686187     0.211376     0.254007  Biso 1.000000     C
    C   1.0     0.249712     0.781772     0.459366  Biso 1.000000     C
    C   1.0     0.749546     0.781755     0.459220  Biso 1.000000     C
    C   1.0     0.292378     0.837606     0.526746  Biso 1.000000     C
    C   1.0     0.792333     0.837534     0.526580  Biso 1.000000     C
    C   1.0     0.248202     0.865425     0.592302  Biso 1.000000     C
    C   1.0     0.748189     0.865349     0.592157  Biso 1.000000     C
    C   1.0     0.286323     0.917731     0.655786  Biso 1.000000     C
    C   1.0     0.786329     0.917628     0.655647  Biso 1.000000     C
    C   1.0     0.376145     0.862709     0.525898  Biso 1.000000     C
    C   1.0     0.876104     0.862630     0.525734  Biso 1.000000     C
    C   1.0     0.414140     0.915044     0.589433  Biso 1.000000     C
    C   1.0     0.914126     0.914940     0.589283  Biso 1.000000     C
    C   1.0     0.369657     0.943620     0.655225  Biso 1.000000     C
    C   1.0     0.869666     0.943518     0.655090  Biso 1.000000     C
    C   1.0     0.352680     0.042693     0.788441  Biso 1.000000     C
    C   1.0     0.852672     0.042624     0.788336  Biso 1.000000     C
    C   1.0     0.415626     0.322968     0.781517  Biso 1.000000     C
    C   1.0     0.915658     0.322959     0.781510  Biso 1.000000     C
    C   1.0     0.458617     0.311118     0.837279  Biso 1.000000     C
    C   1.0     0.958642     0.311144     0.837299  Biso 1.000000     C
    C   1.0     0.414735     0.273164     0.865132  Biso 1.000000     C
    C   1.0     0.914770     0.273195     0.865162  Biso 1.000000     C
    C   1.0     0.453075     0.261839     0.917463  Biso 1.000000     C
    C   1.0     0.953110     0.261899     0.917510  Biso 1.000000     C
    C   1.0     0.042370     0.337125     0.862407  Biso 1.000000     C
    C   1.0     0.542371     0.337069     0.862370  Biso 1.000000     C
    C   1.0     0.080542     0.325887     0.914857  Biso 1.000000     C
    C   1.0     0.580550     0.325798     0.914795  Biso 1.000000     C
    C   1.0     0.036342     0.288510     0.943524  Biso 1.000000     C
    C   1.0     0.536332     0.288421     0.943455  Biso 1.000000     C
    C   1.0     0.019324     0.254626     0.043128  Biso 1.000000     C
    C   1.0     0.519319     0.254560     0.043089  Biso 1.000000     C
    C   1.0     0.081664     0.459638     0.676888  Biso 1.000000     C
    C   1.0     0.581680     0.459623     0.676859  Biso 1.000000     C
    C   1.0     0.124608     0.527305     0.689086  Biso 1.000000     C
    C   1.0     0.624620     0.527291     0.689046  Biso 1.000000     C
    C   1.0     0.080543     0.592879     0.726739  Biso 1.000000     C
    C   1.0     0.580552     0.592865     0.726699  Biso 1.000000     C
    C   1.0     0.119054     0.656521     0.738416  Biso 1.000000     C
    C   1.0     0.619061     0.656508     0.738376  Biso 1.000000     C
    C   1.0     0.208730     0.526657     0.663782  Biso 1.000000     C
    C   1.0     0.708746     0.526650     0.663754  Biso 1.000000     C
    C   1.0     0.247125     0.590330     0.675523  Biso 1.000000     C
    C   1.0     0.747142     0.590325     0.675500  Biso 1.000000     C
    C   1.0     0.202728     0.656156     0.712595  Biso 1.000000     C
    C   1.0     0.702745     0.656150     0.712574  Biso 1.000000     C
    C   1.0     0.186114     0.789680     0.746639  Biso 1.000000     C
    C   1.0     0.686124     0.789680     0.746637  Biso 1.000000     C
    C   1.0     0.249641     0.218640     0.541280  Biso 1.000000     C
    C   1.0     0.749701     0.218548     0.541217  Biso 1.000000     C
    C   1.0     0.292377     0.162767     0.473904  Biso 1.000000     C
    C   1.0     0.792457     0.162643     0.473866  Biso 1.000000     C
    C   1.0     0.248062     0.134776     0.408383  Biso 1.000000     C
    C   1.0     0.748183     0.134646     0.408326  Biso 1.000000     C
    C   1.0     0.286159     0.082509     0.344858  Biso 1.000000     C
    C   1.0     0.786287     0.082348     0.344824  Biso 1.000000     C
    C   1.0     0.376248     0.137694     0.474632  Biso 1.000000     C
    C   1.0     0.876307     0.137542     0.474619  Biso 1.000000     C
    C   1.0     0.414257     0.085426     0.411031  Biso 1.000000     C
    C   1.0     0.914319     0.085228     0.411036  Biso 1.000000     C
    C   1.0     0.369678     0.056756     0.345248  Biso 1.000000     C
    C   1.0     0.869782     0.056554     0.345235  Biso 1.000000     C
    C   1.0     0.352667     0.958234     0.211933  Biso 1.000000     C
    C   1.0     0.852720     0.958145     0.211905  Biso 1.000000     C
    C   1.0     0.248813     0.459008     0.781544  Biso 1.000000     C
    C   1.0     0.748865     0.458960     0.781444  Biso 1.000000     C
    C   1.0     0.206608     0.526558     0.837527  Biso 1.000000     C
    C   1.0     0.706685     0.526528     0.837396  Biso 1.000000     C
    C   1.0     0.251115     0.591938     0.865335  Biso 1.000000     C
    C   1.0     0.751238     0.591887     0.865194  Biso 1.000000     C
    C   1.0     0.213288     0.655519     0.917762  Biso 1.000000     C
    C   1.0     0.713422     0.655491     0.917591  Biso 1.000000     C
    C   1.0     0.122858     0.525988     0.862817  Biso 1.000000     C
    C   1.0     0.622914     0.525982     0.862657  Biso 1.000000     C
    C   1.0     0.085212     0.589590     0.915328  Biso 1.000000     C
    C   1.0     0.585276     0.589605     0.915121  Biso 1.000000     C
    C   1.0     0.129962     0.655220     0.943830  Biso 1.000000     C
    C   1.0     0.630072     0.655215     0.943617  Biso 1.000000     C
    C   1.0     0.147258     0.788445     0.042800  Biso 1.000000     C
    C   1.0     0.647318     0.788436     0.042697  Biso 1.000000     C
    C   1.0     0.083275     0.218488     0.677324  Biso 1.000000     C
    C   1.0     0.583301     0.218496     0.677328  Biso 1.000000     C
    C   1.0     0.040471     0.162593     0.688914  Biso 1.000000     C
    C   1.0     0.540491     0.162622     0.688946  Biso 1.000000     C
    C   1.0     0.084524     0.134829     0.726909  Biso 1.000000     C
    C   1.0     0.584552     0.134871     0.726950  Biso 1.000000     C
    C   1.0     0.046440     0.082396     0.738111  Biso 1.000000     C
    C   1.0     0.546468     0.082459     0.738183  Biso 1.000000     C
    C   1.0     0.456852     0.137371     0.662818  Biso 1.000000     C
    C   1.0     0.956859     0.137324     0.662754  Biso 1.000000     C
    C   1.0     0.418919     0.084870     0.674024  Biso 1.000000     C
    C   1.0     0.918930     0.084798     0.673924  Biso 1.000000     C
    C   1.0     0.463313     0.056324     0.711459  Biso 1.000000     C
    C   1.0     0.963312     0.056242     0.711354  Biso 1.000000     C
    C   1.0     0.480556     0.957025     0.745668  Biso 1.000000     C
    C   1.0     0.980551     0.956981     0.745606  Biso 1.000000     C
    C   1.0     0.416102     0.323035     0.540859  Biso 1.000000     C
    C   1.0     0.916100     0.322995     0.540824  Biso 1.000000     C
    C   1.0     0.374008     0.311217     0.473026  Biso 1.000000     C
    C   1.0     0.874011     0.311179     0.472997  Biso 1.000000     C
    C   1.0     0.418660     0.273812     0.407701  Biso 1.000000     C
    C   1.0     0.918664     0.273770     0.407675  Biso 1.000000     C
    C   1.0     0.380796     0.262407     0.343890  Biso 1.000000     C
    C   1.0     0.880803     0.262369     0.343865  Biso 1.000000     C
    C   1.0     0.290131     0.336783     0.473352  Biso 1.000000     C
    C   1.0     0.790138     0.336753     0.473330  Biso 1.000000     C
    C   1.0     0.252413     0.325356     0.409539  Biso 1.000000     C
    C   1.0     0.752424     0.325332     0.409521  Biso 1.000000     C
    C   1.0     0.297274     0.288345     0.343934  Biso 1.000000     C
    C   1.0     0.797287     0.288318     0.343918  Biso 1.000000     C
    C   1.0     0.313987     0.253608     0.210189  Biso 1.000000     C
    C   1.0     0.813997     0.253601     0.210180  Biso 1.000000     C
    C   1.0     0.250297     0.541066     0.218203  Biso 1.000000     C
    C   1.0     0.749899     0.541059     0.218201  Biso 1.000000     C
    C   1.0     0.207475     0.473747     0.162383  Biso 1.000000     C
    C   1.0     0.707271     0.473674     0.162336  Biso 1.000000     C
    C   1.0     0.251724     0.408230     0.134467  Biso 1.000000     C
    C   1.0     0.751620     0.408209     0.134427  Biso 1.000000     C
    C   1.0     0.213599     0.344745     0.082218  Biso 1.000000     C
    C   1.0     0.713565     0.344699     0.082153  Biso 1.000000     C
    C   1.0     0.123598     0.474501     0.137338  Biso 1.000000     C
    C   1.0     0.623388     0.474372     0.137271  Biso 1.000000     C
    C   1.0     0.085566     0.410933     0.085062  Biso 1.000000     C
    C   1.0     0.585446     0.410794     0.084960  Biso 1.000000     C
    C   1.0     0.130108     0.345160     0.056417  Biso 1.000000     C
    C   1.0     0.630064     0.345062     0.056344  Biso 1.000000     C
    C   1.0     0.147249     0.211878     0.958058  Biso 1.000000     C
    C   1.0     0.647247     0.211814     0.958015  Biso 1.000000     C
    C   1.0     0.083793     0.781480     0.322791  Biso 1.000000     C
    C   1.0     0.583216     0.781595     0.322771  Biso 1.000000     C
    C   1.0     0.040959     0.837356     0.311081  Biso 1.000000     C
    C   1.0     0.540456     0.837541     0.311199  Biso 1.000000     C
    C   1.0     0.084926     0.865181     0.273138  Biso 1.000000     C
    C   1.0     0.584512     0.865263     0.273200  Biso 1.000000     C
    C   1.0     0.046738     0.917641     0.261965  Biso 1.000000     C
    C   1.0     0.546454     0.917744     0.262017  Biso 1.000000     C
    C   1.0     0.456834     0.862860     0.337339  Biso 1.000000     C
    C   1.0     0.957264     0.862537     0.337113  Biso 1.000000     C
    C   1.0     0.418909     0.915393     0.326147  Biso 1.000000     C
    C   1.0     0.919216     0.915050     0.325945  Biso 1.000000     C
    C   1.0     0.463303     0.943926     0.288730  Biso 1.000000     C
    C   1.0     0.963530     0.943709     0.288608  Biso 1.000000     C
    C   1.0     0.480588     0.043325     0.254646  Biso 1.000000     C
    C   1.0     0.980633     0.043215     0.254642  Biso 1.000000     C
    C   1.0     0.416344     0.676909     0.459153  Biso 1.000000     C
    C   1.0     0.916491     0.676948     0.459209  Biso 1.000000     C
    C   1.0     0.374017     0.688980     0.527001  Biso 1.000000     C
    C   1.0     0.874139     0.689039     0.527059  Biso 1.000000     C
    C   1.0     0.418514     0.726467     0.592406  Biso 1.000000     C
    C   1.0     0.918614     0.726500     0.592473  Biso 1.000000     C
    C   1.0     0.380428     0.738091     0.656206  Biso 1.000000     C
    C   1.0     0.880487     0.738113     0.656257  Biso 1.000000     C
    C   1.0     0.290025     0.663625     0.526630  Biso 1.000000     C
    C   1.0     0.790130     0.663697     0.526659  Biso 1.000000     C
    C   1.0     0.252088     0.675269     0.590440  Biso 1.000000     C
    C   1.0     0.752158     0.675317     0.590448  Biso 1.000000     C
    C   1.0     0.296827     0.712293     0.656115  Biso 1.000000     C
    C   1.0     0.796876     0.712317     0.656134  Biso 1.000000     C
    C   1.0     0.313823     0.746549     0.789731  Biso 1.000000     C
    C   1.0     0.813829     0.746550     0.789735  Biso 1.000000     C
    C   1.0     0.083283     0.724238     0.000130  Biso 1.000000     C
    C   1.0     0.583416     0.724212    -0.000063  Biso 1.000000     C
    C   1.0     0.250329     0.275510     0.274814  Biso 1.000000     C
    C   1.0     0.750345     0.275500     0.274807  Biso 1.000000     C
    C   1.0     0.416520    -0.000121     0.724139  Biso 1.000000     C
    C   1.0     0.916508    -0.000207     0.724023  Biso 1.000000     C
    C   1.0     0.083235     0.276130     0.000186  Biso 1.000000     C
    C   1.0     0.583204     0.276032     0.000000  Biso 1.000000     C
    C   1.0     0.249898     0.725088     0.725213  Biso 1.000000     C
    C   1.0     0.749915     0.725091     0.725212  Biso 1.000000     C
    C   1.0     0.416568     0.000499     0.276225  Biso 1.000000     C
    C   1.0     0.916688     0.000323     0.276188  Biso 1.000000     C
    O   1.0     0.456097     0.637380     0.238144  Biso 1.000000     O
    O   1.0     0.955963     0.637670     0.238452  Biso 1.000000     O
    O   1.0     0.344126     0.708737     0.242850  Biso 1.000000     O
    O   1.0     0.843167     0.708102     0.242619  Biso 1.000000     O
    O   1.0     0.125013     0.599969     0.361446  Biso 1.000000     O
    O   1.0     0.625032     0.600088     0.361822  Biso 1.000000     O
    O   1.0     0.009488     0.535304     0.294263  Biso 1.000000     O
    O   1.0     0.509823     0.535382     0.294167  Biso 1.000000     O
    O   1.0     0.289412     0.762718     0.400061  Biso 1.000000     O
    O   1.0     0.789040     0.762615     0.399815  Biso 1.000000     O
    O   1.0     0.177313     0.757414     0.466304  Biso 1.000000     O
    O   1.0     0.677115     0.757512     0.466295  Biso 1.000000     O
    O   1.0     0.456064     0.361967     0.761162  Biso 1.000000     O
    O   1.0     0.956087     0.361962     0.761156  Biso 1.000000     O
    O   1.0     0.342204     0.293213     0.758523  Biso 1.000000     O
    O   1.0     0.842253     0.293176     0.758496  Biso 1.000000     O
    O   1.0     0.122481     0.400671     0.637811  Biso 1.000000     O
    O   1.0     0.622502     0.400658     0.637779  Biso 1.000000     O
    O   1.0     0.008150     0.465967     0.706442  Biso 1.000000     O
    O   1.0     0.508181     0.465955     0.706435  Biso 1.000000     O
    O   1.0     0.289159     0.237697     0.600675  Biso 1.000000     O
    O   1.0     0.789186     0.237638     0.600632  Biso 1.000000     O
    O   1.0     0.177287     0.243106     0.534277  Biso 1.000000     O
    O   1.0     0.677355     0.243008     0.534178  Biso 1.000000     O
    O   1.0     0.207943     0.400033     0.761675  Biso 1.000000     O
    O   1.0     0.707992     0.399993     0.761608  Biso 1.000000     O
    O   1.0     0.321975     0.465435     0.757878  Biso 1.000000     O
    O   1.0     0.822021     0.465373     0.757765  Biso 1.000000     O
    O   1.0     0.043853     0.237797     0.637055  Biso 1.000000     O
    O   1.0     0.543902     0.237790     0.637037  Biso 1.000000     O
    O   1.0     0.155661     0.242675     0.708657  Biso 1.000000     O
    O   1.0     0.655692     0.242673     0.708655  Biso 1.000000     O
    O   1.0     0.374729     0.361859     0.599635  Biso 1.000000     O
    O   1.0     0.874735     0.361814     0.599603  Biso 1.000000     O
    O   1.0     0.489425     0.293349     0.534893  Biso 1.000000     O
    O   1.0     0.989428     0.293314     0.534851  Biso 1.000000     O
    O   1.0     0.210794     0.600457     0.237368  Biso 1.000000     O
    O   1.0     0.709948     0.600286     0.237424  Biso 1.000000     O
    O   1.0     0.322749     0.533985     0.242484  Biso 1.000000     O
    O   1.0     0.822485     0.534226     0.242447  Biso 1.000000     O
    O   1.0     0.043988     0.762098     0.362845  Biso 1.000000     O
    O   1.0     0.543705     0.762172     0.362896  Biso 1.000000     O
    O   1.0     0.156427     0.757442     0.291920  Biso 1.000000     O
    O   1.0     0.655690     0.757472     0.291581  Biso 1.000000     O
    O   1.0     0.374821     0.638386     0.400382  Biso 1.000000     O
    O   1.0     0.874830     0.638582     0.400479  Biso 1.000000     O
    O   1.0     0.489999     0.706071     0.465088  Biso 1.000000     O
    O   1.0     0.990270     0.705919     0.465104  Biso 1.000000     O
    F   1.0     0.059295     0.744161     0.900066  Biso 1.000000     F
    F   1.0     0.559255     0.744175     0.899901  Biso 1.000000     F
    F   1.0     0.451740     0.698604     0.930529  Biso 1.000000     F
    F   1.0     0.951723     0.698599     0.930556  Biso 1.000000     F
    F   1.0     0.485191     0.812622     0.997172  Biso 1.000000     F
    F   1.0     0.985170     0.812630     0.997237  Biso 1.000000     F
    F   1.0     0.226043     0.156024     0.255934  Biso 1.000000     F
    F   1.0     0.726046     0.156021     0.255931  Biso 1.000000     F
    F   1.0     0.118577     0.232012     0.301323  Biso 1.000000     F
    F   1.0     0.618584     0.232014     0.301321  Biso 1.000000     F
    F   1.0     0.151772     0.184470     0.187118  Biso 1.000000     F
    F   1.0     0.651776     0.184471     0.187115  Biso 1.000000     F
    F   1.0     0.392705     0.099600     0.843725  Biso 1.000000     F
    F   1.0     0.892737     0.099501     0.843607  Biso 1.000000     F
    F   1.0     0.284997     0.069461     0.767968  Biso 1.000000     F
    F   1.0     0.784990     0.069444     0.767928  Biso 1.000000     F
    F   1.0     0.318491     0.002554     0.815383  Biso 1.000000     F
    F   1.0     0.818486     0.002492     0.815283  Biso 1.000000     F
    F   1.0     0.059213     0.256042     0.100203  Biso 1.000000     F
    F   1.0     0.559224     0.256023     0.100180  Biso 1.000000     F
    F   1.0     0.451625     0.301613     0.069597  Biso 1.000000     F
    F   1.0     0.951630     0.301663     0.069637  Biso 1.000000     F
    F   1.0     0.485155     0.187665     0.002917  Biso 1.000000     F
    F   1.0     0.985164     0.187743     0.002914  Biso 1.000000     F
    F   1.0     0.226351     0.845622     0.746303  Biso 1.000000     F
    F   1.0     0.726358     0.845625     0.746303  Biso 1.000000     F
    F   1.0     0.118788     0.770243     0.699098  Biso 1.000000     F
    F   1.0     0.618798     0.770244     0.699093  Biso 1.000000     F
    F   1.0     0.151490     0.815585     0.813271  Biso 1.000000     F
    F   1.0     0.651497     0.815582     0.813268  Biso 1.000000     F
    F   1.0     0.392523     0.901996     0.155654  Biso 1.000000     F
    F   1.0     0.892516     0.901914     0.155577  Biso 1.000000     F
    F   1.0     0.285271     0.930651     0.231855  Biso 1.000000     F
    F   1.0     0.785291     0.930611     0.231846  Biso 1.000000     F
    F   1.0     0.318265     0.999730     0.186641  Biso 1.000000     F
    F   1.0     0.818304     0.999693     0.186665  Biso 1.000000     F
    F   1.0     0.107332     0.843827     0.099724  Biso 1.000000     F
    F   1.0     0.607317     0.843743     0.099629  Biso 1.000000     F
    F   1.0     0.214975     0.767960     0.069523  Biso 1.000000     F
    F   1.0     0.714998     0.767961     0.069467  Biso 1.000000     F
    F   1.0     0.181486     0.815209     0.002511  Biso 1.000000     F
    F   1.0     0.681527     0.815302     0.002498  Biso 1.000000     F
    F   1.0     0.440733     0.899946     0.744174  Biso 1.000000     F
    F   1.0     0.940744     0.899912     0.744149  Biso 1.000000     F
    F   1.0     0.048252     0.930484     0.698511  Biso 1.000000     F
    F   1.0     0.548250     0.930517     0.698547  Biso 1.000000     F
    F   1.0     0.014765     0.997173     0.812526  Biso 1.000000     F
    F   1.0     0.514787     0.997183     0.812590  Biso 1.000000     F
    F   1.0     0.273705     0.253703     0.154090  Biso 1.000000     F
    F   1.0     0.773711     0.253704     0.154086  Biso 1.000000     F
    F   1.0     0.381340     0.301049     0.229491  Biso 1.000000     F
    F   1.0     0.881349     0.301043     0.229488  Biso 1.000000     F
    F   1.0     0.348480     0.186966     0.184590  Biso 1.000000     F
    F   1.0     0.848486     0.186957     0.184577  Biso 1.000000     F
    F   1.0     0.107510     0.155531     0.901810  Biso 1.000000     F
    F   1.0     0.607531     0.155446     0.901765  Biso 1.000000     F
    F   1.0     0.214704     0.231824     0.930554  Biso 1.000000     F
    F   1.0     0.714698     0.231797     0.930537  Biso 1.000000     F
    F   1.0     0.181673     0.186681     0.999654  Biso 1.000000     F
    F   1.0     0.681681     0.186657     0.999640  Biso 1.000000     F
    F   1.0     0.440840     0.100438     0.256045  Biso 1.000000     F
    F   1.0     0.940813     0.100297     0.256054  Biso 1.000000     F
    F   1.0     0.048355     0.069656     0.301675  Biso 1.000000     F
    F   1.0     0.548337     0.069691     0.301677  Biso 1.000000     F
    F   1.0     0.014815     0.002972     0.187731  Biso 1.000000     F
    F   1.0     0.514798     0.003043     0.187744  Biso 1.000000     F
    F   1.0     0.273665     0.746300     0.845770  Biso 1.000000     F
    F   1.0     0.773668     0.746301     0.845772  Biso 1.000000     F
    F   1.0     0.381164     0.699019     0.770269  Biso 1.000000     F
    F   1.0     0.881169     0.699018     0.770278  Biso 1.000000     F
    F   1.0     0.348482     0.813137     0.815525  Biso 1.000000     F
    F   1.0     0.848488     0.813138     0.815532  Biso 1.000000     F
   Zn   1.0     0.415410     0.601559     0.301440  Biso 1.000000    Zn
   Zn   1.0     0.915292     0.601680     0.301521  Biso 1.000000    Zn
   Zn   1.0     0.084430     0.698879     0.398706  Biso 1.000000    Zn
   Zn   1.0     0.584274     0.698929     0.398784  Biso 1.000000    Zn
   Zn   1.0     0.250701     0.699433     0.300826  Biso 1.000000    Zn
   Zn   1.0     0.748996     0.699347     0.300781  Biso 1.000000    Zn
   Zn   1.0     0.415125     0.398535     0.698613  Biso 1.000000    Zn
   Zn   1.0     0.915161     0.398483     0.698565  Biso 1.000000    Zn
   Zn   1.0     0.083784     0.301383     0.601413  Biso 1.000000    Zn
   Zn   1.0     0.583916     0.301339     0.601361  Biso 1.000000    Zn
   Zn   1.0     0.248565     0.301133     0.699510  Biso 1.000000    Zn
   Zn   1.0     0.748605     0.301084     0.699474  Biso 1.000000    Zn
