#======================================================================

# CRYSTAL DATA

#----------------------------------------------------------------------

data_VESTA_phase_1


_pd_phase_name                         MOF
_cell_length_a                         15.41000
_cell_length_b                         21.43300
_cell_length_c                         21.43400
_cell_angle_alpha                      119.98400
_cell_angle_beta                       89.98400
_cell_angle_gamma                      90.00800
_symmetry_space_group_name_H-M         "P 1"
_symmetry_Int_Tables_number            1

loop_
_symmetry_equiv_pos_as_xyz
   "x, y, z"

loop_
   _atom_site_label
   _atom_site_occupancy
   _atom_site_fract_x
   _atom_site_fract_y
   _atom_site_fract_z
   _atom_site_adp_type
   _atom_site_B_iso_or_equiv
   _atom_site_type_symbol
    H   1.0     0.067184     0.153642     0.406728  Biso 1.000000     H
    H   1.0     0.567196     0.153642     0.406727  Biso 1.000000     H
    H   1.0     0.270592     0.066338     0.411307  Biso 1.000000     H
    H   1.0     0.770603     0.066339     0.411307  Biso 1.000000     H
    H   1.0     0.337978     0.159781     0.524029  Biso 1.000000     H
    H   1.0     0.837989     0.159781     0.524029  Biso 1.000000     H
    H   1.0     0.500793     0.061717     0.294065  Biso 1.000000     H
    H   1.0     0.000000     0.061718     0.294065  Biso 1.000000     H
    H   1.0     0.400479     0.253138     0.846290  Biso 1.000000     H
    H   1.0     0.900490     0.253136     0.846289  Biso 1.000000     H
    H   1.0     0.103935     0.345082     0.933711  Biso 1.000000     H
    H   1.0     0.603945     0.345081     0.933710  Biso 1.000000     H
    H   1.0     0.171330     0.364320     0.840184  Biso 1.000000     H
    H   1.0     0.671341     0.364320     0.840184  Biso 1.000000     H
    H   1.0     0.334065     0.232425     0.938280  Biso 1.000000     H
    H   1.0     0.834075     0.232423     0.938278  Biso 1.000000     H
    H   1.0     0.233752     0.593163     0.746826  Biso 1.000000     H
    H   1.0     0.733763     0.593164     0.746826  Biso 1.000000     H
    H   1.0     0.437229     0.588747     0.654995  Biso 1.000000     H
    H   1.0     0.937240     0.588748     0.654995  Biso 1.000000     H
    H   1.0     0.004591     0.475956     0.635633  Biso 1.000000     H
    H   1.0     0.504603     0.475956     0.635635  Biso 1.000000     H
    H   1.0     0.167367     0.705891     0.767638  Biso 1.000000     H
    H   1.0     0.667378     0.705891     0.767638  Biso 1.000000     H
    H   1.0     0.067137     0.846324     0.593171  Biso 1.000000     H
    H   1.0     0.567149     0.846325     0.593171  Biso 1.000000     H
    H   1.0     0.270615     0.933749     0.588713  Biso 1.000000     H
    H   1.0     0.770626     0.933749     0.588713  Biso 1.000000     H
    H   1.0     0.337965     0.840267     0.475964  Biso 1.000000     H
    H   1.0     0.837976     0.840267     0.475964  Biso 1.000000     H
    H   1.0     0.500780     0.938285     0.705861  Biso 1.000000     H
    H   1.0     0.000000     0.938284     0.705861  Biso 1.000000     H
    H   1.0     0.400482     0.746883     0.153625  Biso 1.000000     H
    H   1.0     0.900492     0.746885     0.153627  Biso 1.000000     H
    H   1.0     0.103953     0.654884     0.066330  Biso 1.000000     H
    H   1.0     0.603963     0.654885     0.066332  Biso 1.000000     H
    H   1.0     0.171373     0.635653     0.159821  Biso 1.000000     H
    H   1.0     0.671383     0.635654     0.159822  Biso 1.000000     H
    H   1.0     0.334042     0.767591     0.061677  Biso 1.000000     H
    H   1.0     0.834052     0.767593     0.061679  Biso 1.000000     H
    H   1.0     0.233790     0.406842     0.253124  Biso 1.000000     H
    H   1.0     0.733801     0.406842     0.253124  Biso 1.000000     H
    H   1.0     0.437183     0.411202     0.344907  Biso 1.000000     H
    H   1.0     0.937195     0.411202     0.344907  Biso 1.000000     H
    H   1.0     0.004556     0.524009     0.364285  Biso 1.000000     H
    H   1.0     0.504567     0.524009     0.364284  Biso 1.000000     H
    H   1.0     0.167398     0.294098     0.232303  Biso 1.000000     H
    H   1.0     0.667409     0.294098     0.232303  Biso 1.000000     H
    H   1.0     0.266234     0.746874     0.593206  Biso 1.000000     H
    H   1.0     0.766246     0.746875     0.593206  Biso 1.000000     H
    H   1.0     0.062802     0.655060     0.588736  Biso 1.000000     H
    H   1.0     0.562813     0.655060     0.588735  Biso 1.000000     H
    H   1.0     0.495424     0.635691     0.475962  Biso 1.000000     H
    H   1.0     0.995435     0.635691     0.475962  Biso 1.000000     H
    H   1.0     0.332632     0.767685     0.705914  Biso 1.000000     H
    H   1.0     0.832644     0.767686     0.705914  Biso 1.000000     H
    H   1.0     0.432835     0.406778     0.153666  Biso 1.000000     H
    H   1.0     0.932846     0.406777     0.153666  Biso 1.000000     H
    H   1.0     0.229423     0.411305     0.066299  Biso 1.000000     H
    H   1.0     0.729434     0.411305     0.066299  Biso 1.000000     H
    H   1.0     0.162050     0.524040     0.159774  Biso 1.000000     H
    H   1.0     0.662061     0.524040     0.159773  Biso 1.000000     H
    H   1.0    -0.000784     0.294102     0.061713  Biso 1.000000     H
    H   1.0     0.499228     0.294102     0.061715  Biso 1.000000     H
    H   1.0     0.099553     0.846311     0.253148  Biso 1.000000     H
    H   1.0     0.599564     0.846311     0.253149  Biso 1.000000     H
    H   1.0     0.396055     0.933745     0.345101  Biso 1.000000     H
    H   1.0     0.896066     0.933745     0.345101  Biso 1.000000     H
    H   1.0     0.328661     0.840228     0.364357  Biso 1.000000     H
    H   1.0     0.828672     0.840229     0.364358  Biso 1.000000     H
    H   1.0     0.165965     0.938286     0.232414  Biso 1.000000     H
    H   1.0     0.665977     0.938286     0.232414  Biso 1.000000     H
    H   1.0     0.266237     0.253170     0.406891  Biso 1.000000     H
    H   1.0     0.766250     0.253168     0.406891  Biso 1.000000     H
    H   1.0     0.062810     0.344937     0.411159  Biso 1.000000     H
    H   1.0     0.562820     0.344938     0.411159  Biso 1.000000     H
    H   1.0     0.495469     0.364327     0.523983  Biso 1.000000     H
    H   1.0     0.995482     0.364326     0.523983  Biso 1.000000     H
    H   1.0     0.332598     0.232334     0.294128  Biso 1.000000     H
    H   1.0     0.832611     0.232332     0.294128  Biso 1.000000     H
    H   1.0     0.432856     0.593251     0.846362  Biso 1.000000     H
    H   1.0     0.932868     0.593251     0.846360  Biso 1.000000     H
    H   1.0     0.229368     0.588650     0.933699  Biso 1.000000     H
    H   1.0     0.729378     0.588650     0.933700  Biso 1.000000     H
    H   1.0     0.161989     0.475935     0.840218  Biso 1.000000     H
    H   1.0     0.661999     0.475935     0.840220  Biso 1.000000     H
    H   1.0    -0.000755     0.705906     0.938310  Biso 1.000000     H
    H   1.0     0.499256     0.705906     0.938311  Biso 1.000000     H
    H   1.0     0.099529     0.153661     0.746890  Biso 1.000000     H
    H   1.0     0.599541     0.153662     0.746890  Biso 1.000000     H
    H   1.0     0.396105     0.066356     0.654936  Biso 1.000000     H
    H   1.0     0.896117     0.066356     0.654936  Biso 1.000000     H
    H   1.0     0.328677     0.159836     0.635675  Biso 1.000000     H
    H   1.0     0.828688     0.159835     0.635674  Biso 1.000000     H
    H   1.0     0.165972     0.061714     0.767618  Biso 1.000000     H
    H   1.0     0.665985     0.061716     0.767619  Biso 1.000000     H
    C   1.0     0.000308     0.218007     0.540780  Biso 1.000000     C
    C   1.0     0.500320     0.218007     0.540779  Biso 1.000000     C
    C   1.0     0.002309     0.133953     0.407469  Biso 1.000000     C
    C   1.0     0.502320     0.133954     0.407469  Biso 1.000000     C
    C   1.0     0.335811     0.085089     0.409807  Biso 1.000000     C
    C   1.0     0.835822     0.085089     0.409807  Biso 1.000000     C
    C   1.0     0.373809     0.137317     0.473604  Biso 1.000000     C
    C   1.0     0.873820     0.137316     0.473605  Biso 1.000000     C
    C   1.0     0.457841     0.162126     0.473036  Biso 1.000000     C
    C   1.0     0.957851     0.162127     0.473036  Biso 1.000000     C
    C   1.0     0.464185     0.081690     0.343695  Biso 1.000000     C
    C   1.0     0.964196     0.081690     0.343695  Biso 1.000000     C
    C   1.0     0.380484     0.056242     0.343958  Biso 1.000000     C
    C   1.0     0.880496     0.056241     0.343958  Biso 1.000000     C
    C   1.0     0.269828     0.043257     0.253433  Biso 1.000000     C
    C   1.0     0.769839     0.043257     0.253433  Biso 1.000000     C
    C   1.0     0.333613     0.322859     0.781920  Biso 1.000000     C
    C   1.0     0.833623     0.322856     0.781918  Biso 1.000000     C
    C   1.0     0.335619     0.273582     0.865999  Biso 1.000000     C
    C   1.0     0.835630     0.273581     0.865998  Biso 1.000000     C
    C   1.0     0.169136     0.324813     0.914933  Biso 1.000000     C
    C   1.0     0.669147     0.324812     0.914932  Biso 1.000000     C
    C   1.0     0.207137     0.336368     0.862667  Biso 1.000000     C
    C   1.0     0.707148     0.336367     0.862666  Biso 1.000000     C
    C   1.0     0.291149     0.310981     0.837827  Biso 1.000000     C
    C   1.0     0.791158     0.310977     0.837824  Biso 1.000000     C
    C   1.0     0.297480     0.262080     0.918295  Biso 1.000000     C
    C   1.0     0.797490     0.262078     0.918294  Biso 1.000000     C
    C   1.0     0.213791     0.287785     0.943761  Biso 1.000000     C
    C   1.0     0.713803     0.287787     0.943763  Biso 1.000000     C
    C   1.0     0.103165     0.210195     0.956746  Biso 1.000000     C
    C   1.0     0.603175     0.210195     0.956746  Biso 1.000000     C
    C   1.0     0.166885     0.459123     0.677055  Biso 1.000000     C
    C   1.0     0.666897     0.459123     0.677055  Biso 1.000000     C
    C   1.0     0.168894     0.592459     0.726407  Biso 1.000000     C
    C   1.0     0.668905     0.592460     0.726407  Biso 1.000000     C
    C   1.0     0.002422     0.590209     0.675229  Biso 1.000000     C
    C   1.0     0.502434     0.590209     0.675230  Biso 1.000000     C
    C   1.0     0.040408     0.526377     0.663615  Biso 1.000000     C
    C   1.0     0.540420     0.526378     0.663616  Biso 1.000000     C
    C   1.0     0.124417     0.526905     0.688978  Biso 1.000000     C
    C   1.0     0.624429     0.526905     0.688979  Biso 1.000000     C
    C   1.0     0.130773     0.656267     0.737959  Biso 1.000000     C
    C   1.0     0.630784     0.656267     0.737959  Biso 1.000000     C
    C   1.0     0.047099     0.656043     0.712255  Biso 1.000000     C
    C   1.0     0.547110     0.656043     0.712256  Biso 1.000000     C
    C   1.0     0.436489     0.746575     0.789814  Biso 1.000000     C
    C   1.0     0.936500     0.746575     0.789814  Biso 1.000000     C
    C   1.0     0.000255     0.781975     0.459154  Biso 1.000000     C
    C   1.0     0.500268     0.781976     0.459155  Biso 1.000000     C
    C   1.0     0.002278     0.866040     0.592456  Biso 1.000000     C
    C   1.0     0.502290     0.866041     0.592456  Biso 1.000000     C
    C   1.0     0.335819     0.914971     0.590185  Biso 1.000000     C
    C   1.0     0.835830     0.914971     0.590185  Biso 1.000000     C
    C   1.0     0.373796     0.862724     0.526373  Biso 1.000000     C
    C   1.0     0.873807     0.862724     0.526373  Biso 1.000000     C
    C   1.0     0.457808     0.837883     0.526909  Biso 1.000000     C
    C   1.0     0.957818     0.837882     0.526909  Biso 1.000000     C
    C   1.0     0.464175     0.918322     0.656245  Biso 1.000000     C
    C   1.0     0.964186     0.918321     0.656245  Biso 1.000000     C
    C   1.0     0.380490     0.943794     0.656016  Biso 1.000000     C
    C   1.0     0.880502     0.943795     0.656015  Biso 1.000000     C
    C   1.0     0.269829     0.956750     0.746556  Biso 1.000000     C
    C   1.0     0.769840     0.956750     0.746556  Biso 1.000000     C
    C   1.0     0.333650     0.677155     0.218038  Biso 1.000000     C
    C   1.0     0.833659     0.677158     0.218041  Biso 1.000000     C
    C   1.0     0.335623     0.726429     0.133949  Biso 1.000000     C
    C   1.0     0.835633     0.726430     0.133951  Biso 1.000000     C
    C   1.0     0.169150     0.675168     0.085080  Biso 1.000000     C
    C   1.0     0.669160     0.675170     0.085081  Biso 1.000000     C
    C   1.0     0.207168     0.663618     0.137330  Biso 1.000000     C
    C   1.0     0.707178     0.663619     0.137331  Biso 1.000000     C
    C   1.0     0.291174     0.689023     0.162144  Biso 1.000000     C
    C   1.0     0.791183     0.689027     0.162147  Biso 1.000000     C
    C   1.0     0.297467     0.737926     0.081671  Biso 1.000000     C
    C   1.0     0.797477     0.737928     0.081672  Biso 1.000000     C
    C   1.0     0.213783     0.712205     0.056231  Biso 1.000000     C
    C   1.0     0.713795     0.712203     0.056230  Biso 1.000000     C
    C   1.0     0.103160     0.789787     0.043250  Biso 1.000000     C
    C   1.0     0.603171     0.789787     0.043250  Biso 1.000000     C
    C   1.0     0.166895     0.540869     0.322907  Biso 1.000000     C
    C   1.0     0.666906     0.540869     0.322907  Biso 1.000000     C
    C   1.0     0.168914     0.407531     0.273534  Biso 1.000000     C
    C   1.0     0.668926     0.407532     0.273535  Biso 1.000000     C
    C   1.0     0.002396     0.409756     0.324686  Biso 1.000000     C
    C   1.0     0.502407     0.409755     0.324685  Biso 1.000000     C
    C   1.0     0.040385     0.473593     0.336309  Biso 1.000000     C
    C   1.0     0.540397     0.473593     0.336309  Biso 1.000000     C
    C   1.0     0.124418     0.473077     0.310960  Biso 1.000000     C
    C   1.0     0.624429     0.473077     0.310958  Biso 1.000000     C
    C   1.0     0.130790     0.343717     0.261975  Biso 1.000000     C
    C   1.0     0.630801     0.343717     0.261975  Biso 1.000000     C
    C   1.0     0.047097     0.343932     0.287677  Biso 1.000000     C
    C   1.0     0.547109     0.343932     0.287676  Biso 1.000000     C
    C   1.0     0.436488     0.253404     0.210153  Biso 1.000000     C
    C   1.0     0.936499     0.253404     0.210153  Biso 1.000000     C
    C   1.0     0.333097     0.677096     0.459156  Biso 1.000000     C
    C   1.0     0.833109     0.677097     0.459157  Biso 1.000000     C
    C   1.0     0.331100     0.726455     0.592490  Biso 1.000000     C
    C   1.0     0.831112     0.726456     0.592490  Biso 1.000000     C
    C   1.0     0.497597     0.675288     0.590208  Biso 1.000000     C
    C   1.0     0.997609     0.675289     0.590208  Biso 1.000000     C
    C   1.0     0.459601     0.663670     0.526386  Biso 1.000000     C
    C   1.0     0.959613     0.663670     0.526387  Biso 1.000000     C
    C   1.0     0.375576     0.689025     0.526929  Biso 1.000000     C
    C   1.0     0.875588     0.689026     0.526929  Biso 1.000000     C
    C   1.0     0.369231     0.738009     0.656287  Biso 1.000000     C
    C   1.0     0.869242     0.738009     0.656287  Biso 1.000000     C
    C   1.0     0.452912     0.712299     0.656047  Biso 1.000000     C
    C   1.0     0.952923     0.712297     0.656046  Biso 1.000000     C
    C   1.0     0.063527     0.789833     0.746566  Biso 1.000000     C
    C   1.0     0.563538     0.789833     0.746566  Biso 1.000000     C
    C   1.0     0.499727     0.540823     0.218028  Biso 1.000000     C
    C   1.0     0.999738     0.540823     0.218028  Biso 1.000000     C
    C   1.0     0.497710     0.407510     0.133967  Biso 1.000000     C
    C   1.0     0.997720     0.407510     0.133966  Biso 1.000000     C
    C   1.0     0.164207     0.409816     0.085067  Biso 1.000000     C
    C   1.0     0.664218     0.409816     0.085067  Biso 1.000000     C
    C   1.0     0.126216     0.473621     0.137308  Biso 1.000000     C
    C   1.0     0.626227     0.473621     0.137308  Biso 1.000000     C
    C   1.0     0.042186     0.473069     0.162135  Biso 1.000000     C
    C   1.0     0.542197     0.473069     0.162135  Biso 1.000000     C
    C   1.0     0.035827     0.343727     0.081690  Biso 1.000000     C
    C   1.0     0.535838     0.343727     0.081690  Biso 1.000000     C
    C   1.0     0.119529     0.343973     0.056233  Biso 1.000000     C
    C   1.0     0.619540     0.343973     0.056232  Biso 1.000000     C
    C   1.0     0.230176     0.253430     0.043242  Biso 1.000000     C
    C   1.0     0.730187     0.253430     0.043242  Biso 1.000000     C
    C   1.0     0.166406     0.781948     0.322876  Biso 1.000000     C
    C   1.0     0.666417     0.781948     0.322877  Biso 1.000000     C
    C   1.0     0.164406     0.866020     0.273589  Biso 1.000000     C
    C   1.0     0.664417     0.866020     0.273589  Biso 1.000000     C
    C   1.0     0.330864     0.914961     0.324828  Biso 1.000000     C
    C   1.0     0.830876     0.914961     0.324828  Biso 1.000000     C
    C   1.0     0.292864     0.862701     0.336391  Biso 1.000000     C
    C   1.0     0.792875     0.862701     0.336392  Biso 1.000000     C
    C   1.0     0.208866     0.837855     0.310997  Biso 1.000000     C
    C   1.0     0.708878     0.837855     0.310997  Biso 1.000000     C
    C   1.0     0.202545     0.918310     0.262078  Biso 1.000000     C
    C   1.0     0.702556     0.918310     0.262078  Biso 1.000000     C
    C   1.0     0.286221     0.943783     0.287790  Biso 1.000000     C
    C   1.0     0.786232     0.943783     0.287791  Biso 1.000000     C
    C   1.0     0.396852     0.956750     0.210188  Biso 1.000000     C
    C   1.0     0.896863     0.956750     0.210188  Biso 1.000000     C
    C   1.0     0.333145     0.322931     0.540875  Biso 1.000000     C
    C   1.0     0.833160     0.322928     0.540875  Biso 1.000000     C
    C   1.0     0.331107     0.273571     0.407555  Biso 1.000000     C
    C   1.0     0.831120     0.273569     0.407555  Biso 1.000000     C
    C   1.0     0.497605     0.324717     0.409735  Biso 1.000000     C
    C   1.0     0.997618     0.324716     0.409735  Biso 1.000000     C
    C   1.0     0.459633     0.336345     0.473580  Biso 1.000000     C
    C   1.0     0.959646     0.336345     0.473581  Biso 1.000000     C
    C   1.0     0.375608     0.310999     0.473085  Biso 1.000000     C
    C   1.0     0.875623     0.310995     0.473085  Biso 1.000000     C
    C   1.0     0.369214     0.262006     0.343732  Biso 1.000000     C
    C   1.0     0.869227     0.262004     0.343732  Biso 1.000000     C
    C   1.0     0.452902     0.287698     0.343926  Biso 1.000000     C
    C   1.0     0.952913     0.287701     0.343926  Biso 1.000000     C
    C   1.0     0.063522     0.210160     0.253398  Biso 1.000000     C
    C   1.0     0.563532     0.210161     0.253399  Biso 1.000000     C
    C   1.0     0.499708     0.459187     0.781961  Biso 1.000000     C
    C   1.0     0.999721     0.459188     0.781958  Biso 1.000000     C
    C   1.0     0.497713     0.592501     0.866055  Biso 1.000000     C
    C   1.0     0.997725     0.592501     0.866054  Biso 1.000000     C
    C   1.0     0.164169     0.590157     0.914938  Biso 1.000000     C
    C   1.0     0.664179     0.590157     0.914940  Biso 1.000000     C
    C   1.0     0.126172     0.526361     0.862693  Biso 1.000000     C
    C   1.0     0.626183     0.526361     0.862694  Biso 1.000000     C
    C   1.0     0.042168     0.526932     0.837867  Biso 1.000000     C
    C   1.0     0.542176     0.526931     0.837871  Biso 1.000000     C
    C   1.0     0.035837     0.656274     0.918330  Biso 1.000000     C
    C   1.0     0.535848     0.656273     0.918331  Biso 1.000000     C
    C   1.0     0.119517     0.656011     0.943785  Biso 1.000000     C
    C   1.0     0.619529     0.656011     0.943784  Biso 1.000000     C
    C   1.0     0.230182     0.746554     0.956734  Biso 1.000000     C
    C   1.0     0.730193     0.746554     0.956735  Biso 1.000000     C
    C   1.0     0.166376     0.218038     0.677129  Biso 1.000000     C
    C   1.0     0.666389     0.218039     0.677130  Biso 1.000000     C
    C   1.0     0.164396     0.133981     0.726444  Biso 1.000000     C
    C   1.0     0.664408     0.133981     0.726444  Biso 1.000000     C
    C   1.0     0.330895     0.085106     0.675206  Biso 1.000000     C
    C   1.0     0.830907     0.085106     0.675206  Biso 1.000000     C
    C   1.0     0.292877     0.137349     0.663641  Biso 1.000000     C
    C   1.0     0.792888     0.137349     0.663640  Biso 1.000000     C
    C   1.0     0.208854     0.162158     0.689027  Biso 1.000000     C
    C   1.0     0.708867     0.162159     0.689028  Biso 1.000000     C
    C   1.0     0.202553     0.081705     0.737953  Biso 1.000000     C
    C   1.0     0.702565     0.081706     0.737953  Biso 1.000000     C
    C   1.0     0.286244     0.056258     0.712236  Biso 1.000000     C
    C   1.0     0.786255     0.056257     0.712234  Biso 1.000000     C
    C   1.0     0.396853     0.043255     0.789795  Biso 1.000000     C
    C   1.0     0.896865     0.043255     0.789795  Biso 1.000000     C
    C   1.0     0.333350     0.000018     0.274862  Biso 1.000000     C
    C   1.0     0.833361     0.000018     0.274862  Biso 1.000000     C
    C   1.0     0.166656     0.274864     0.000006  Biso 1.000000     C
    C   1.0     0.666668     0.274864     0.000006  Biso 1.000000     C
    C   1.0     0.000006     0.725181     0.725163  Biso 1.000000     C
    C   1.0     0.500018     0.725181     0.725163  Biso 1.000000     C
    C   1.0     0.333362     0.000021     0.725131  Biso 1.000000     C
    C   1.0     0.833373     0.000021     0.725131  Biso 1.000000     C
    C   1.0     0.166659     0.725111     0.000007  Biso 1.000000     C
    C   1.0     0.666670     0.725111     0.000007  Biso 1.000000     C
    C   1.0     0.000000     0.274800     0.274789  Biso 1.000000     C
    C   1.0     0.500001     0.274801     0.274789  Biso 1.000000     C
    O   1.0     0.459600     0.237926     0.599940  Biso 1.000000     O
    O   1.0     0.959611     0.237924     0.599941  Biso 1.000000     O
    O   1.0     0.073525     0.241575     0.534305  Biso 1.000000     O
    O   1.0     0.573536     0.241577     0.534304  Biso 1.000000     O
    O   1.0     0.292906     0.362141     0.762048  Biso 1.000000     O
    O   1.0     0.792918     0.362142     0.762050  Biso 1.000000     O
    O   1.0     0.406783     0.292781     0.758281  Biso 1.000000     O
    O   1.0     0.906796     0.292783     0.758283  Biso 1.000000     O
    O   1.0     0.126210     0.399976     0.637723  Biso 1.000000     O
    O   1.0     0.626221     0.399977     0.637724  Biso 1.000000     O
    O   1.0     0.240051     0.465559     0.707122  Biso 1.000000     O
    O   1.0     0.740063     0.465560     0.707124  Biso 1.000000     O
    O   1.0     0.459572     0.762085     0.400005  Biso 1.000000     O
    O   1.0     0.959584     0.762087     0.400005  Biso 1.000000     O
    O   1.0     0.073427     0.758357     0.465617  Biso 1.000000     O
    O   1.0     0.573438     0.758356     0.465617  Biso 1.000000     O
    O   1.0     0.292939     0.637890     0.237948  Biso 1.000000     O
    O   1.0     0.792951     0.637888     0.237946  Biso 1.000000     O
    O   1.0     0.406841     0.707206     0.241621  Biso 1.000000     O
    O   1.0     0.906853     0.707204     0.241620  Biso 1.000000     O
    O   1.0     0.126204     0.600008     0.362243  Biso 1.000000     O
    O   1.0     0.626215     0.600008     0.362243  Biso 1.000000     O
    O   1.0     0.240090     0.534448     0.292856  Biso 1.000000     O
    O   1.0     0.740102     0.534448     0.292857  Biso 1.000000     O
    O   1.0     0.373789     0.637783     0.400007  Biso 1.000000     O
    O   1.0     0.873800     0.637782     0.400007  Biso 1.000000     O
    O   1.0     0.259904     0.707143     0.465602  Biso 1.000000     O
    O   1.0     0.759914     0.707141     0.465602  Biso 1.000000     O
    O   1.0     0.040428     0.599978     0.237917  Biso 1.000000     O
    O   1.0     0.540439     0.599979     0.237916  Biso 1.000000     O
    O   1.0     0.426532     0.534364     0.241639  Biso 1.000000     O
    O   1.0     0.926543     0.534364     0.241639  Biso 1.000000     O
    O   1.0     0.207099     0.762086     0.362170  Biso 1.000000     O
    O   1.0     0.707110     0.762088     0.362172  Biso 1.000000     O
    O   1.0     0.093245     0.758314     0.292800  Biso 1.000000     O
    O   1.0     0.593256     0.758315     0.292802  Biso 1.000000     O
    O   1.0     0.373821     0.362277     0.600007  Biso 1.000000     O
    O   1.0     0.873832     0.362280     0.600008  Biso 1.000000     O
    O   1.0     0.259980     0.292848     0.534457  Biso 1.000000     O
    O   1.0     0.759990     0.292851     0.534457  Biso 1.000000     O
    O   1.0     0.040403     0.400025     0.762031  Biso 1.000000     O
    O   1.0     0.540416     0.400025     0.762029  Biso 1.000000     O
    O   1.0     0.426520     0.465670     0.758384  Biso 1.000000     O
    O   1.0     0.926530     0.465670     0.758386  Biso 1.000000     O
    O   1.0     0.207091     0.237913     0.637839  Biso 1.000000     O
    O   1.0     0.707102     0.237911     0.637836  Biso 1.000000     O
    O   1.0     0.093182     0.241643     0.707183  Biso 1.000000     O
    O   1.0     0.593192     0.241642     0.707180  Biso 1.000000     O
    F   1.0     0.203464     0.072070     0.301688  Biso 1.000000     F
    F   1.0     0.703476     0.072071     0.301688  Biso 1.000000     F
    F   1.0     0.233539     0.002828     0.187215  Biso 1.000000     F
    F   1.0     0.733550     0.002828     0.187215  Biso 1.000000     F
    F   1.0     0.311170     0.098928     0.253187  Biso 1.000000     F
    F   1.0     0.811181     0.098928     0.253187  Biso 1.000000     F
    F   1.0     0.036798     0.229632     0.927937  Biso 1.000000     F
    F   1.0     0.536809     0.229632     0.927936  Biso 1.000000     F
    F   1.0     0.066856     0.184384     0.997184  Biso 1.000000     F
    F   1.0     0.566867     0.184384     0.997185  Biso 1.000000     F
    F   1.0     0.144516     0.154310     0.901088  Biso 1.000000     F
    F   1.0     0.644527     0.154311     0.901088  Biso 1.000000     F
    F   1.0     0.370128     0.698320     0.770387  Biso 1.000000     F
    F   1.0     0.870139     0.698319     0.770387  Biso 1.000000     F
    F   1.0     0.400203     0.812808     0.815621  Biso 1.000000     F
    F   1.0     0.900214     0.812808     0.815621  Biso 1.000000     F
    F   1.0     0.477828     0.746801     0.845707  Biso 1.000000     F
    F   1.0     0.977839     0.746801     0.845707  Biso 1.000000     F
    F   1.0     0.203473     0.927935     0.698317  Biso 1.000000     F
    F   1.0     0.703484     0.927934     0.698316  Biso 1.000000     F
    F   1.0     0.233531     0.997170     0.812785  Biso 1.000000     F
    F   1.0     0.733542     0.997170     0.812785  Biso 1.000000     F
    F   1.0     0.311168     0.901080     0.746791  Biso 1.000000     F
    F   1.0     0.811179     0.901080     0.746790  Biso 1.000000     F
    F   1.0     0.036783     0.770360     0.072080  Biso 1.000000     F
    F   1.0     0.536795     0.770360     0.072080  Biso 1.000000     F
    F   1.0     0.066865     0.815599     0.002820  Biso 1.000000     F
    F   1.0     0.566876     0.815599     0.002820  Biso 1.000000     F
    F   1.0     0.144497     0.845680     0.098895  Biso 1.000000     F
    F   1.0     0.644509     0.845680     0.098895  Biso 1.000000     F
    F   1.0     0.370131     0.301664     0.229607  Biso 1.000000     F
    F   1.0     0.870142     0.301664     0.229607  Biso 1.000000     F
    F   1.0     0.400202     0.187171     0.184364  Biso 1.000000     F
    F   1.0     0.900214     0.187172     0.184364  Biso 1.000000     F
    F   1.0     0.477847     0.253183     0.154254  Biso 1.000000     F
    F   1.0     0.977858     0.253183     0.154254  Biso 1.000000     F
    F   1.0     0.129889     0.770385     0.698304  Biso 1.000000     F
    F   1.0     0.629901     0.770385     0.698304  Biso 1.000000     F
    F   1.0     0.099804     0.815621     0.812790  Biso 1.000000     F
    F   1.0     0.599815     0.815621     0.812790  Biso 1.000000     F
    F   1.0     0.022171     0.845730     0.746795  Biso 1.000000     F
    F   1.0     0.522182     0.845730     0.746795  Biso 1.000000     F
    F   1.0     0.296538     0.301679     0.072058  Biso 1.000000     F
    F   1.0     0.796550     0.301679     0.072058  Biso 1.000000     F
    F   1.0     0.266481     0.187206     0.002821  Biso 1.000000     F
    F   1.0     0.766492     0.187206     0.002821  Biso 1.000000     F
    F   1.0     0.188844     0.253195     0.098921  Biso 1.000000     F
    F   1.0     0.688856     0.253195     0.098921  Biso 1.000000     F
    F   1.0     0.463217     0.927931     0.229616  Biso 1.000000     F
    F   1.0     0.963228     0.927930     0.229616  Biso 1.000000     F
    F   1.0     0.433153     0.997180     0.184365  Biso 1.000000     F
    F   1.0     0.933164     0.997180     0.184365  Biso 1.000000     F
    F   1.0     0.355507     0.901095     0.154309  Biso 1.000000     F
    F   1.0     0.855518     0.901095     0.154309  Biso 1.000000     F
    F   1.0     0.129871     0.229599     0.301652  Biso 1.000000     F
    F   1.0     0.629883     0.229599     0.301651  Biso 1.000000     F
    F   1.0     0.099814     0.184355     0.187166  Biso 1.000000     F
    F   1.0     0.599825     0.184355     0.187167  Biso 1.000000     F
    F   1.0     0.022179     0.154261     0.253187  Biso 1.000000     F
    F   1.0     0.522190     0.154260     0.253186  Biso 1.000000     F
    F   1.0     0.296545     0.698309     0.927918  Biso 1.000000     F
    F   1.0     0.796556     0.698309     0.927918  Biso 1.000000     F
    F   1.0     0.266477     0.812784     0.997157  Biso 1.000000     F
    F   1.0     0.766488     0.812783     0.997157  Biso 1.000000     F
    F   1.0     0.188842     0.746794     0.901075  Biso 1.000000     F
    F   1.0     0.688853     0.746794     0.901076  Biso 1.000000     F
    F   1.0     0.463230     0.072076     0.770355  Biso 1.000000     F
    F   1.0     0.963241     0.072076     0.770355  Biso 1.000000     F
    F   1.0     0.433149     0.002817     0.815598  Biso 1.000000     F
    F   1.0     0.933160     0.002817     0.815598  Biso 1.000000     F
    F   1.0     0.355506     0.098909     0.845686  Biso 1.000000     F
    F   1.0     0.855518     0.098909     0.845685  Biso 1.000000     F
   Zn   1.0     0.000006     0.300832     0.699110  Biso 1.000000    Zn
   Zn   1.0     0.500017     0.300832     0.699109  Biso 1.000000    Zn
   Zn   1.0     0.333348     0.398452     0.699152  Biso 1.000000    Zn
   Zn   1.0     0.833359     0.398453     0.699152  Biso 1.000000    Zn
   Zn   1.0     0.166659     0.300824     0.601556  Biso 1.000000    Zn
   Zn   1.0     0.666670     0.300824     0.601556  Biso 1.000000    Zn
   Zn   1.0    -0.000008     0.699153     0.300827  Biso 1.000000    Zn
   Zn   1.0     0.500003     0.699153     0.300828  Biso 1.000000    Zn
   Zn   1.0     0.333352     0.601602     0.300858  Biso 1.000000    Zn
   Zn   1.0     0.833364     0.601601     0.300858  Biso 1.000000    Zn
   Zn   1.0     0.166668     0.699163     0.398452  Biso 1.000000    Zn
   Zn   1.0     0.666679     0.699163     0.398452  Biso 1.000000    Zn
