#======================================================================

# CRYSTAL DATA

#----------------------------------------------------------------------

data_VESTA_phase_1


_pd_phase_name                         MOF
_cell_length_a                         14.33400
_cell_length_b                         14.33100
_cell_length_c                         26.52800
_cell_angle_alpha                      80.12900
_cell_angle_beta                       80.06500
_cell_angle_gamma                      86.37400
_symmetry_space_group_name_H-M         "P 1"
_symmetry_Int_Tables_number            1

loop_
_symmetry_equiv_pos_as_xyz
   "x, y, z"

loop_
   _atom_site_label
   _atom_site_occupancy
   _atom_site_fract_x
   _atom_site_fract_y
   _atom_site_fract_z
   _atom_site_adp_type
   _atom_site_B_iso_or_equiv
   _atom_site_type_symbol
    H   1.0     0.158493     0.629371     0.205094  Biso 1.000000     H
    H   1.0     0.146121     0.462048     0.250589  Biso 1.000000     H
    H   1.0     0.386568     0.380511     0.143428  Biso 1.000000     H
    H   1.0     0.402753     0.549009     0.100829  Biso 1.000000     H
    H   1.0     0.294204     0.139608     0.090479  Biso 1.000000     H
    H   1.0     0.251539     0.287562     0.127539  Biso 1.000000     H
    H   1.0     0.331144     0.149612     0.272186  Biso 1.000000     H
    H   1.0     0.378070     0.000000     0.233563  Biso 1.000000     H
    H   1.0     0.880457     0.155657     0.427766  Biso 1.000000     H
    H   1.0     0.916805     0.160172     0.332881  Biso 1.000000     H
    H   1.0     0.000000     0.449350     0.313500  Biso 1.000000     H
    H   1.0     0.959416     0.445701     0.408513  Biso 1.000000     H
    H   1.0     0.000000     0.191559     0.106178  Biso 1.000000     H
    H   1.0     0.965004     0.315484     0.161880  Biso 1.000000     H
    H   1.0     0.066708     0.138902     0.290676  Biso 1.000000     H
    H   1.0     0.120373     0.015332     0.235723  Biso 1.000000     H
    H   1.0    -0.003350     0.817386     0.160834  Biso 1.000000     H
    H   1.0     0.826171     0.807702     0.156889  Biso 1.000000     H
    H   1.0     0.898731     0.881536     0.989299  Biso 1.000000     H
    H   1.0     0.064487     0.892055     0.001679  Biso 1.000000     H
    H   1.0     0.530827     0.773575     0.139753  Biso 1.000000     H
    H   1.0     0.700020     0.764579     0.146751  Biso 1.000000     H
    H   1.0     0.755672     0.911029     0.987631  Biso 1.000000     H
    H   1.0     0.584265     0.911194     0.987016  Biso 1.000000     H
    H   1.0     0.628448     0.154771     0.704801  Biso 1.000000     H
    H   1.0     0.461138     0.143646     0.750602  Biso 1.000000     H
    H   1.0     0.380733     0.384329     0.643442  Biso 1.000000     H
    H   1.0     0.549253     0.399404     0.600638  Biso 1.000000     H
    H   1.0     0.139426     0.292955     0.590788  Biso 1.000000     H
    H   1.0     0.287111     0.249530     0.627905  Biso 1.000000     H
    H   1.0     0.149776     0.331297     0.772257  Biso 1.000000     H
    H   1.0     0.000000     0.378788     0.733614  Biso 1.000000     H
    H   1.0     0.156741     0.880182     0.928678  Biso 1.000000     H
    H   1.0     0.159598     0.916288     0.833954  Biso 1.000000     H
    H   1.0     0.449276     0.000000     0.812848  Biso 1.000000     H
    H   1.0     0.447100     0.958876     0.907749  Biso 1.000000     H
    H   1.0     0.190315     0.000000     0.606594  Biso 1.000000     H
    H   1.0     0.313925     0.963300     0.662266  Biso 1.000000     H
    H   1.0     0.137953     0.065837     0.791174  Biso 1.000000     H
    H   1.0     0.014575     0.120158     0.736276  Biso 1.000000     H
    H   1.0     0.819056    -0.006302     0.660794  Biso 1.000000     H
    H   1.0     0.808824     0.823158     0.656947  Biso 1.000000     H
    H   1.0     0.881139     0.895348     0.489230  Biso 1.000000     H
    H   1.0     0.892093     0.061194     0.501497  Biso 1.000000     H
    H   1.0     0.772550     0.528087     0.639903  Biso 1.000000     H
    H   1.0     0.764205     0.697386     0.646861  Biso 1.000000     H
    H   1.0     0.911251     0.752067     0.487763  Biso 1.000000     H
    H   1.0     0.910586     0.580635     0.487182  Biso 1.000000     H
    H   1.0     0.372125     0.844861     0.295109  Biso 1.000000     H
    H   1.0     0.539387     0.855904     0.249249  Biso 1.000000     H
    H   1.0     0.619903     0.615301     0.356412  Biso 1.000000     H
    H   1.0     0.451382     0.600211     0.399259  Biso 1.000000     H
    H   1.0     0.860840     0.707092     0.409184  Biso 1.000000     H
    H   1.0     0.713225     0.750461     0.371955  Biso 1.000000     H
    H   1.0     0.850889     0.668619     0.227678  Biso 1.000000     H
    H   1.0    -0.002723     0.621167     0.266447  Biso 1.000000     H
    H   1.0     0.843627     0.119709     0.071461  Biso 1.000000     H
    H   1.0     0.840780     0.083127     0.166163  Biso 1.000000     H
    H   1.0     0.551099    -0.000814     0.187128  Biso 1.000000     H
    H   1.0     0.553193     0.041319     0.092260  Biso 1.000000     H
    H   1.0     0.810571    -0.021263     0.393337  Biso 1.000000     H
    H   1.0     0.686735     0.035877     0.337741  Biso 1.000000     H
    H   1.0     0.862971     0.933670     0.208808  Biso 1.000000     H
    H   1.0     0.986463     0.879801     0.263681  Biso 1.000000     H
    H   1.0     0.181440     0.000000     0.339179  Biso 1.000000     H
    H   1.0     0.191350     0.176920     0.343023  Biso 1.000000     H
    H   1.0     0.119373     0.104652     0.510742  Biso 1.000000     H
    H   1.0     0.108589     0.938783     0.498478  Biso 1.000000     H
    H   1.0     0.227740     0.471944     0.360080  Biso 1.000000     H
    H   1.0     0.235953     0.302649     0.353108  Biso 1.000000     H
    H   1.0     0.089117     0.247949     0.512245  Biso 1.000000     H
    H   1.0     0.089872     0.419402     0.512829  Biso 1.000000     H
    H   1.0     0.841567     0.370624     0.794959  Biso 1.000000     H
    H   1.0     0.853946     0.537935     0.749455  Biso 1.000000     H
    H   1.0     0.613459     0.619498     0.856584  Biso 1.000000     H
    H   1.0     0.597266     0.451008     0.899193  Biso 1.000000     H
    H   1.0     0.705855     0.860369     0.909558  Biso 1.000000     H
    H   1.0     0.748526     0.712425     0.872490  Biso 1.000000     H
    H   1.0     0.668905     0.850390     0.727848  Biso 1.000000     H
    H   1.0     0.622033    -0.002822     0.766470  Biso 1.000000     H
    H   1.0     0.119734     0.844349     0.572211  Biso 1.000000     H
    H   1.0     0.083300     0.839907     0.667090  Biso 1.000000     H
    H   1.0    -0.001493     0.550737     0.686507  Biso 1.000000     H
    H   1.0     0.040760     0.554308     0.591498  Biso 1.000000     H
    H   1.0    -0.021975     0.808536     0.893794  Biso 1.000000     H
    H   1.0     0.035090     0.684640     0.838071  Biso 1.000000     H
    H   1.0     0.933391     0.861258     0.709289  Biso 1.000000     H
    H   1.0     0.879710     0.984812     0.764263  Biso 1.000000     H
    H   1.0     0.000000     0.182462     0.839134  Biso 1.000000     H
    H   1.0     0.174012     0.192178     0.843091  Biso 1.000000     H
    H   1.0     0.101362     0.118703     0.010695  Biso 1.000000     H
    H   1.0     0.935615     0.108173     0.998304  Biso 1.000000     H
    H   1.0     0.469341     0.226433     0.860302  Biso 1.000000     H
    H   1.0     0.300159     0.235442     0.853256  Biso 1.000000     H
    H   1.0     0.244370     0.089011     0.012375  Biso 1.000000     H
    H   1.0     0.415755     0.088809     0.013039  Biso 1.000000     H
    C   1.0     0.288685     0.699622     0.122608  Biso 1.000000     C
    C   1.0     0.280465     0.598934     0.149654  Biso 1.000000     C
    C   1.0     0.207886     0.574314     0.191879  Biso 1.000000     C
    C   1.0     0.200812     0.481103     0.217078  Biso 1.000000     C
    C   1.0     0.263663     0.409871     0.199260  Biso 1.000000     C
    C   1.0     0.336092     0.434710     0.156798  Biso 1.000000     C
    C   1.0     0.345454     0.528798     0.132880  Biso 1.000000     C
    C   1.0     0.366036     0.972618     0.137928  Biso 1.000000     C
    C   1.0     0.338834     0.062195     0.159708  Biso 1.000000     C
    C   1.0     0.304096     0.142930     0.129849  Biso 1.000000     C
    C   1.0     0.280444     0.225827     0.150699  Biso 1.000000     C
    C   1.0     0.289194     0.228456     0.202317  Biso 1.000000     C
    C   1.0     0.323954     0.147184     0.232219  Biso 1.000000     C
    C   1.0     0.349641     0.065504     0.210972  Biso 1.000000     C
    C   1.0     0.254912     0.311391     0.228272  Biso 1.000000     C
    C   1.0     0.895106     0.301161     0.481643  Biso 1.000000     C
    C   1.0     0.918090     0.300313     0.424420  Biso 1.000000     C
    C   1.0     0.907512     0.219839     0.402688  Biso 1.000000     C
    C   1.0     0.929278     0.222226     0.349135  Biso 1.000000     C
    C   1.0     0.964076     0.304888     0.316468  Biso 1.000000     C
    C   1.0     0.975039     0.385102     0.338621  Biso 1.000000     C
    C   1.0     0.951565     0.383201     0.391651  Biso 1.000000     C
    C   1.0     0.113278     0.025854     0.132915  Biso 1.000000     C
    C   1.0     0.074438     0.096008     0.167660  Biso 1.000000     C
    C   1.0     0.029660     0.180415     0.146956  Biso 1.000000     C
    C   1.0     0.998105     0.248865     0.177692  Biso 1.000000     C
    C   1.0     0.000000     0.235005     0.229991  Biso 1.000000     C
    C   1.0     0.054139     0.149900     0.250763  Biso 1.000000     C
    C   1.0     0.085366     0.080810     0.219948  Biso 1.000000     C
    C   1.0     0.984076     0.316873     0.258436  Biso 1.000000     C
    C   1.0     0.971381     0.830190     0.123696  Biso 1.000000     C
    C   1.0     0.876180     0.824092     0.120914  Biso 1.000000     C
    C   1.0     0.846091     0.841807     0.072271  Biso 1.000000     C
    C   1.0     0.915615     0.865817     0.028421  Biso 1.000000     C
    C   1.0     0.009098     0.871610     0.034662  Biso 1.000000     C
    C   1.0     0.583581     0.801173     0.106767  Biso 1.000000     C
    C   1.0     0.679118     0.796899     0.110090  Biso 1.000000     C
    C   1.0     0.744842     0.837887     0.067827  Biso 1.000000     C
    C   1.0     0.709671     0.877662     0.022240  Biso 1.000000     C
    C   1.0     0.612927     0.878707     0.021578  Biso 1.000000     C
    C   1.0     0.699297     0.284754     0.622409  Biso 1.000000     C
    C   1.0     0.598561     0.276873     0.649430  Biso 1.000000     C
    C   1.0     0.573607     0.204476     0.691668  Biso 1.000000     C
    C   1.0     0.480417     0.198087     0.717019  Biso 1.000000     C
    C   1.0     0.409531     0.261419     0.699293  Biso 1.000000     C
    C   1.0     0.434685     0.333547     0.656751  Biso 1.000000     C
    C   1.0     0.528770     0.342261     0.632711  Biso 1.000000     C
    C   1.0     0.972897     0.365836     0.638067  Biso 1.000000     C
    C   1.0     0.062354     0.338634     0.659873  Biso 1.000000     C
    C   1.0     0.142868     0.303174     0.630093  Biso 1.000000     C
    C   1.0     0.225591     0.279092     0.650972  Biso 1.000000     C
    C   1.0     0.228293     0.288237     0.702527  Biso 1.000000     C
    C   1.0     0.147271     0.323779     0.732344  Biso 1.000000     C
    C   1.0     0.065734     0.349824     0.711074  Biso 1.000000     C
    C   1.0     0.311067     0.253686     0.728467  Biso 1.000000     C
    C   1.0     0.303397     0.894888     0.981628  Biso 1.000000     C
    C   1.0     0.301696     0.917692     0.924492  Biso 1.000000     C
    C   1.0     0.220646     0.907152     0.903279  Biso 1.000000     C
    C   1.0     0.222086     0.928746     0.849810  Biso 1.000000     C
    C   1.0     0.304443     0.963161     0.816688  Biso 1.000000     C
    C   1.0     0.385225     0.974157     0.838315  Biso 1.000000     C
    C   1.0     0.384194     0.951012     0.891278  Biso 1.000000     C
    C   1.0     0.025177     0.112956     0.633355  Biso 1.000000     C
    C   1.0     0.095112     0.074074     0.668130  Biso 1.000000     C
    C   1.0     0.179263     0.028864     0.647379  Biso 1.000000     C
    C   1.0     0.247495     0.996774     0.678094  Biso 1.000000     C
    C   1.0     0.233747     0.000000     0.730407  Biso 1.000000     C
    C   1.0     0.148894     0.053310     0.751238  Biso 1.000000     C
    C   1.0     0.079933     0.084948     0.720445  Biso 1.000000     C
    C   1.0     0.315651     0.982076     0.758682  Biso 1.000000     C
    C   1.0     0.831412     0.968265     0.623670  Biso 1.000000     C
    C   1.0     0.824992     0.873079     0.620941  Biso 1.000000     C
    C   1.0     0.842081     0.842930     0.572290  Biso 1.000000     C
    C   1.0     0.865821     0.912318     0.528373  Biso 1.000000     C
    C   1.0     0.871951     0.005852     0.534539  Biso 1.000000     C
    C   1.0     0.800344     0.580679     0.606899  Biso 1.000000     C
    C   1.0     0.796452     0.676241     0.610207  Biso 1.000000     C
    C   1.0     0.837752     0.741694     0.567910  Biso 1.000000     C
    C   1.0     0.877499     0.706286     0.522355  Biso 1.000000     C
    C   1.0     0.878156     0.609529     0.521731  Biso 1.000000     C
    C   1.0     0.301379     0.715137     0.377606  Biso 1.000000     C
    C   1.0     0.402068     0.722787     0.350497  Biso 1.000000     C
    C   1.0     0.426959     0.795129     0.308223  Biso 1.000000     C
    C   1.0     0.520109     0.801476     0.282832  Biso 1.000000     C
    C   1.0     0.591008     0.738197     0.300577  Biso 1.000000     C
    C   1.0     0.565918     0.666059     0.343118  Biso 1.000000     C
    C   1.0     0.471846     0.657347     0.367180  Biso 1.000000     C
    C   1.0     0.027416     0.634140     0.361976  Biso 1.000000     C
    C   1.0     0.938019     0.661382     0.340136  Biso 1.000000     C
    C   1.0     0.857475     0.696876     0.369867  Biso 1.000000     C
    C   1.0     0.774807     0.720912     0.348931  Biso 1.000000     C
    C   1.0     0.772222     0.711713     0.297370  Biso 1.000000     C
    C   1.0     0.853296     0.676177     0.267596  Biso 1.000000     C
    C   1.0     0.934765     0.650156     0.288929  Biso 1.000000     C
    C   1.0     0.689430     0.746125     0.271423  Biso 1.000000     C
    C   1.0     0.697084     0.105142     0.018412  Biso 1.000000     C
    C   1.0     0.698671     0.082309     0.075566  Biso 1.000000     C
    C   1.0     0.779706     0.092694     0.096827  Biso 1.000000     C
    C   1.0     0.778269     0.070812     0.150290  Biso 1.000000     C
    C   1.0     0.695952     0.036156     0.183367  Biso 1.000000     C
    C   1.0     0.615136     0.025469     0.161693  Biso 1.000000     C
    C   1.0     0.616134     0.048987     0.108745  Biso 1.000000     C
    C   1.0     0.976340     0.887137     0.366328  Biso 1.000000     C
    C   1.0     0.905926     0.925845     0.331809  Biso 1.000000     C
    C   1.0     0.821670     0.970894     0.352574  Biso 1.000000     C
    C   1.0     0.753269     0.002610     0.321882  Biso 1.000000     C
    C   1.0     0.766985    -0.010038     0.269584  Biso 1.000000     C
    C   1.0     0.851991     0.946255     0.248733  Biso 1.000000     C
    C   1.0     0.921030     0.914891     0.279504  Biso 1.000000     C
    C   1.0     0.684845     0.016257     0.241370  Biso 1.000000     C
    C   1.0     0.169071     0.031767     0.376302  Biso 1.000000     C
    C   1.0     0.175307     0.126978     0.379029  Biso 1.000000     C
    C   1.0     0.158232     0.157110     0.427683  Biso 1.000000     C
    C   1.0     0.134637     0.087695     0.471600  Biso 1.000000     C
    C   1.0     0.128651     0.994142     0.465432  Biso 1.000000     C
    C   1.0     0.199944     0.419353     0.393084  Biso 1.000000     C
    C   1.0     0.203771     0.323800     0.389769  Biso 1.000000     C
    C   1.0     0.162503     0.258345     0.432072  Biso 1.000000     C
    C   1.0     0.122815     0.293743     0.477641  Biso 1.000000     C
    C   1.0     0.122219     0.390495     0.478270  Biso 1.000000     C
    C   1.0     0.711348     0.300390     0.877451  Biso 1.000000     C
    C   1.0     0.719573     0.401069     0.850388  Biso 1.000000     C
    C   1.0     0.792163     0.425680     0.808167  Biso 1.000000     C
    C   1.0     0.799240     0.518888     0.782960  Biso 1.000000     C
    C   1.0     0.736382     0.590127     0.800765  Biso 1.000000     C
    C   1.0     0.663941     0.565296     0.843222  Biso 1.000000     C
    C   1.0     0.654575     0.471211     0.867146  Biso 1.000000     C
    C   1.0     0.634023     0.027377     0.862102  Biso 1.000000     C
    C   1.0     0.661248     0.937800     0.840325  Biso 1.000000     C
    C   1.0     0.695978     0.857059     0.870183  Biso 1.000000     C
    C   1.0     0.719632     0.774167     0.849328  Biso 1.000000     C
    C   1.0     0.710883     0.771543     0.797709  Biso 1.000000     C
    C   1.0     0.676125     0.852818     0.767810  Biso 1.000000     C
    C   1.0     0.650454     0.934496     0.789059  Biso 1.000000     C
    C   1.0     0.745139     0.688606     0.771750  Biso 1.000000     C
    C   1.0     0.105103     0.698823     0.518367  Biso 1.000000     C
    C   1.0     0.082089     0.699687     0.575584  Biso 1.000000     C
    C   1.0     0.092647     0.780188     0.597297  Biso 1.000000     C
    C   1.0     0.070828     0.777843     0.650844  Biso 1.000000     C
    C   1.0     0.035995     0.695201     0.683515  Biso 1.000000     C
    C   1.0     0.025040     0.614965     0.661379  Biso 1.000000     C
    C   1.0     0.048576     0.616822     0.608356  Biso 1.000000     C
    C   1.0     0.886764     0.974209     0.867077  Biso 1.000000     C
    C   1.0     0.925631     0.904096     0.832318  Biso 1.000000     C
    C   1.0     0.970419     0.819692     0.853015  Biso 1.000000     C
    C   1.0     0.001983     0.751263     0.822271  Biso 1.000000     C
    C   1.0    -0.010531     0.765141     0.769974  Biso 1.000000     C
    C   1.0     0.945946     0.850248     0.749204  Biso 1.000000     C
    C   1.0     0.914714     0.919324     0.780028  Biso 1.000000     C
    C   1.0     0.015978     0.683260     0.741541  Biso 1.000000     C
    C   1.0     0.028784     0.169747     0.876276  Biso 1.000000     C
    C   1.0     0.123983     0.175858     0.879064  Biso 1.000000     C
    C   1.0     0.154042     0.158246     0.927715  Biso 1.000000     C
    C   1.0     0.084500     0.134342     0.971566  Biso 1.000000     C
    C   1.0     0.991025     0.128536     0.965320  Biso 1.000000     C
    C   1.0     0.416561     0.198842     0.893276  Biso 1.000000     C
    C   1.0     0.321035     0.203123     0.889925  Biso 1.000000     C
    C   1.0     0.255280     0.162153     0.932176  Biso 1.000000     C
    C   1.0     0.290402     0.122376     0.977777  Biso 1.000000     C
    C   1.0     0.387136     0.121314     0.978466  Biso 1.000000     C
    N   1.0     0.037636     0.853868     0.081335  Biso 1.000000     N
    N   1.0     0.550097     0.842494     0.063397  Biso 1.000000     N
    N   1.0     0.854817     0.034421     0.581238  Biso 1.000000     N
    N   1.0     0.841597     0.546946     0.563553  Biso 1.000000     N
    N   1.0     0.145827     0.965580     0.418735  Biso 1.000000     N
    N   1.0     0.158767     0.453078     0.436445  Biso 1.000000     N
    N   1.0     0.962514     0.146162     0.918640  Biso 1.000000     N
    N   1.0     0.450001     0.157521     0.936662  Biso 1.000000     N
    O   1.0     0.214032     0.752433     0.125979  Biso 1.000000     O
    O   1.0     0.370514     0.724011     0.097997  Biso 1.000000     O
    O   1.0     0.345872     0.971418     0.091549  Biso 1.000000     O
    O   1.0     0.407627     0.905375     0.162382  Biso 1.000000     O
    O   1.0     0.218375     0.297410     0.274755  Biso 1.000000     O
    O   1.0     0.893118     0.221835     0.512204  Biso 1.000000     O
    O   1.0     0.880544     0.382657     0.495182  Biso 1.000000     O
    O   1.0     0.119673     0.048794     0.084265  Biso 1.000000     O
    O   1.0     0.139837     0.942788     0.154056  Biso 1.000000     O
    O   1.0     0.979308     0.397568     0.233238  Biso 1.000000     O
    O   1.0     0.751799     0.209891     0.625462  Biso 1.000000     O
    O   1.0     0.724023     0.366689     0.598153  Biso 1.000000     O
    O   1.0     0.972015     0.345518     0.591705  Biso 1.000000     O
    O   1.0     0.905476     0.407303     0.662539  Biso 1.000000     O
    O   1.0     0.297024     0.217894     0.775045  Biso 1.000000     O
    O   1.0     0.224254     0.892907     0.012390  Biso 1.000000     O
    O   1.0     0.385111     0.880515     0.994869  Biso 1.000000     O
    O   1.0     0.048313     0.119287     0.584681  Biso 1.000000     O
    O   1.0     0.942001     0.139336     0.654358  Biso 1.000000     O
    O   1.0     0.395975     0.975613     0.733264  Biso 1.000000     O
    O   1.0     0.249297     0.790273     0.374853  Biso 1.000000     O
    O   1.0     0.276331     0.633137     0.401632  Biso 1.000000     O
    O   1.0     0.028319     0.654481     0.408328  Biso 1.000000     O
    O   1.0     0.094775     0.592607     0.337503  Biso 1.000000     O
    O   1.0     0.703386     0.782024     0.224861  Biso 1.000000     O
    O   1.0     0.776279     0.107063     0.987690  Biso 1.000000     O
    O   1.0     0.615419     0.119537     0.005123  Biso 1.000000     O
    O   1.0     0.954036     0.880828     0.415071  Biso 1.000000     O
    O   1.0     0.059318     0.860737     0.345111  Biso 1.000000     O
    O   1.0     0.604396     0.020889     0.266890  Biso 1.000000     O
    O   1.0     0.786019     0.247602     0.874141  Biso 1.000000     O
    O   1.0     0.629496     0.275985     0.902018  Biso 1.000000     O
    O   1.0     0.654168     0.028579     0.908485  Biso 1.000000     O
    O   1.0     0.592432     0.094609     0.837641  Biso 1.000000     O
    O   1.0     0.781652     0.702585     0.725262  Biso 1.000000     O
    O   1.0     0.107052     0.778142     0.487817  Biso 1.000000     O
    O   1.0     0.119679     0.617323     0.504825  Biso 1.000000     O
    O   1.0     0.880368     0.951235     0.915725  Biso 1.000000     O
    O   1.0     0.860185     0.057278     0.845952  Biso 1.000000     O
    O   1.0     0.020713     0.602581     0.766759  Biso 1.000000     O
   Zn   1.0     0.176375     0.881002     0.089563  Biso 1.000000    Zn
   Zn   1.0     0.407093     0.855220     0.068346  Biso 1.000000    Zn
   Zn   1.0     0.881037     0.172874     0.589386  Biso 1.000000    Zn
   Zn   1.0     0.855034     0.403645     0.568694  Biso 1.000000    Zn
   Zn   1.0     0.119398     0.827145     0.410608  Biso 1.000000    Zn
   Zn   1.0     0.145428     0.596378     0.431298  Biso 1.000000    Zn
   Zn   1.0     0.823734     0.119001     0.910471  Biso 1.000000    Zn
   Zn   1.0     0.592996     0.144765     0.931715  Biso 1.000000    Zn
