#======================================================================

# CRYSTAL DATA

#----------------------------------------------------------------------

data_VESTA_phase_1


_pd_phase_name                         MOF
_cell_length_a                         13.18900
_cell_length_b                         12.38700
_cell_length_c                         12.32400
_cell_angle_alpha                      89.98500
_cell_angle_beta                       90.71900
_cell_angle_gamma                      89.75100
_symmetry_space_group_name_H-M         "P 1"
_symmetry_Int_Tables_number            1

loop_
_symmetry_equiv_pos_as_xyz
   "x, y, z"

loop_
   _atom_site_label
   _atom_site_occupancy
   _atom_site_fract_x
   _atom_site_fract_y
   _atom_site_fract_z
   _atom_site_adp_type
   _atom_site_B_iso_or_equiv
   _atom_site_type_symbol
    H   1.0     0.935968     0.307301     0.903358  Biso 1.000000     H
    H   1.0     0.173305     0.909784     0.148696  Biso 1.000000     H
    H   1.0     0.020569     0.406726     0.753939  Biso 1.000000     H
    H   1.0     0.439131     0.691166     0.092672  Biso 1.000000     H
    H   1.0     0.672354     0.084406     0.846203  Biso 1.000000     H
    H   1.0     0.523422     0.596750     0.248005  Biso 1.000000     H
    H   1.0     0.184435     0.612745     0.803578  Biso 1.000000     H
    H   1.0     0.406131     0.354037     0.409034  Biso 1.000000     H
    H   1.0     0.272303     0.766341     0.894064  Biso 1.000000     H
    H   1.0     0.679207     0.383523     0.191361  Biso 1.000000     H
    H   1.0     0.905535     0.641200     0.588260  Biso 1.000000     H
    H   1.0     0.768857     0.233403     0.097633  Biso 1.000000     H
    H   1.0     0.312090     0.190968     0.403681  Biso 1.000000     H
    H   1.0     0.076859     0.585139     0.650124  Biso 1.000000     H
    H   1.0     0.227030     0.094817     0.250476  Biso 1.000000     H
    H   1.0     0.811375     0.806127     0.594189  Biso 1.000000     H
    H   1.0     0.575965     0.410017     0.348268  Biso 1.000000     H
    H   1.0     0.726364     0.905471     0.743743  Biso 1.000000     H
    H   1.0     0.068748     0.885376     0.309061  Biso 1.000000     H
    H   1.0     0.843128     0.140377     0.908364  Biso 1.000000     H
    H   1.0     0.979246     0.736566     0.403935  Biso 1.000000     H
    H   1.0     0.564266     0.112717     0.694345  Biso 1.000000     H
    H   1.0     0.343403     0.853406     0.087892  Biso 1.000000     H
    H   1.0     0.475368     0.266345     0.603605  Biso 1.000000     H
    C   1.0     0.012930     0.285333     0.880227  Biso 1.000000     C
    C   1.0     0.152935     0.176272     0.899603  Biso 1.000000     C
    C   1.0     0.205339     0.086777     0.953318  Biso 1.000000     C
    C   1.0     0.208844     0.952699     0.082185  Biso 1.000000     C
    C   1.0     0.060257     0.341005     0.795423  Biso 1.000000     C
    C   1.0     0.200217     0.231717     0.813635  Biso 1.000000     C
    C   1.0     0.515759     0.713952     0.117560  Biso 1.000000     C
    C   1.0     0.655115     0.822192     0.099309  Biso 1.000000     C
    C   1.0     0.706791     0.910445     0.044948  Biso 1.000000     C
    C   1.0     0.708673     0.042235     0.913863  Biso 1.000000     C
    C   1.0     0.563101     0.660625     0.205335  Biso 1.000000     C
    C   1.0     0.702969     0.768521     0.187596  Biso 1.000000     C
    C   1.0     0.260776     0.634832     0.778865  Biso 1.000000     C
    C   1.0     0.397345     0.610976     0.667896  Biso 1.000000     C
    C   1.0     0.446506     0.553853     0.579376  Biso 1.000000     C
    C   1.0     0.444134     0.421002     0.449443  Biso 1.000000     C
    C   1.0     0.310176     0.721808     0.829897  Biso 1.000000     C
    C   1.0     0.447066     0.698489     0.719251  Biso 1.000000     C
    C   1.0     0.756657     0.362281     0.215657  Biso 1.000000     C
    C   1.0     0.895143     0.386316     0.327289  Biso 1.000000     C
    C   1.0     0.945206     0.442870     0.416643  Biso 1.000000     C
    C   1.0     0.943597     0.574612     0.547749  Biso 1.000000     C
    C   1.0     0.806867     0.276980     0.163183  Biso 1.000000     C
    C   1.0     0.945284     0.299881     0.275093  Biso 1.000000     C
    C   1.0     0.234964     0.213376     0.379532  Biso 1.000000     C
    C   1.0     0.094817     0.321606     0.398312  Biso 1.000000     C
    C   1.0     0.042768     0.410166     0.452518  Biso 1.000000     C
    C   1.0     0.040525     0.542674     0.582892  Biso 1.000000     C
    C   1.0     0.187239     0.159185     0.292803  Biso 1.000000     C
    C   1.0     0.046749     0.267305     0.310874  Biso 1.000000     C
    C   1.0     0.734552     0.784285     0.617370  Biso 1.000000     C
    C   1.0     0.595081     0.675725     0.597912  Biso 1.000000     C
    C   1.0     0.543112     0.586537     0.544058  Biso 1.000000     C
    C   1.0     0.540227     0.452857     0.414876  Biso 1.000000     C
    C   1.0     0.686970     0.839985     0.702232  Biso 1.000000     C
    C   1.0     0.547543     0.731144     0.683983  Biso 1.000000     C
    C   1.0     0.991568     0.864105     0.284518  Biso 1.000000     C
    C   1.0     0.853756     0.887311     0.171440  Biso 1.000000     C
    C   1.0     0.803874     0.943307     0.081269  Biso 1.000000     C
    C   1.0     0.805270     0.074195     0.949237  Biso 1.000000     C
    C   1.0     0.941497     0.779409     0.337459  Biso 1.000000     C
    C   1.0     0.803878     0.801367     0.224007  Biso 1.000000     C
    C   1.0     0.487731     0.134924     0.718963  Biso 1.000000     C
    C   1.0     0.351116     0.111129     0.829678  Biso 1.000000     C
    C   1.0     0.302160     0.053889     0.918008  Biso 1.000000     C
    C   1.0     0.305112     0.920627     0.047580  Biso 1.000000     C
    C   1.0     0.437739     0.221895     0.667761  Biso 1.000000     C
    C   1.0     0.300895     0.198838     0.778373  Biso 1.000000     C
    N   1.0     0.058887     0.204341     0.932518  Biso 1.000000     N
    N   1.0     0.159630     0.035308     0.036139  Biso 1.000000     N
    N   1.0     0.153198     0.315413     0.762962  Biso 1.000000     N
    N   1.0     0.561311     0.793437     0.064465  Biso 1.000000     N
    N   1.0     0.660067     0.960767     0.960547  Biso 1.000000     N
    N   1.0     0.656128     0.686480     0.239286  Biso 1.000000     N
    N   1.0     0.304089     0.579205     0.699293  Biso 1.000000     N
    N   1.0     0.398138     0.469961     0.531601  Biso 1.000000     N
    N   1.0     0.402767     0.752612     0.801684  Biso 1.000000     N
    N   1.0     0.800581     0.417315     0.296180  Biso 1.000000     N
    N   1.0     0.896781     0.526266     0.464733  Biso 1.000000     N
    N   1.0     0.900483     0.246674     0.191489  Biso 1.000000     N
    N   1.0     0.189203     0.293242     0.432437  Biso 1.000000     N
    N   1.0     0.089464     0.460845     0.536460  Biso 1.000000     N
    N   1.0     0.093790     0.184851     0.259413  Biso 1.000000     N
    N   1.0     0.688976     0.703559     0.564998  Biso 1.000000     N
    N   1.0     0.589022     0.535173     0.461031  Biso 1.000000     N
    N   1.0     0.594206     0.814549     0.734773  Biso 1.000000     N
    N   1.0     0.947903     0.918394     0.203021  Biso 1.000000     N
    N   1.0     0.852036     0.026260     0.032788  Biso 1.000000     N
    N   1.0     0.848387     0.748838     0.308527  Biso 1.000000     N
    N   1.0     0.444646     0.079271     0.798414  Biso 1.000000     N
    N   1.0     0.350948     0.969696     0.965635  Biso 1.000000     N
    N   1.0     0.344944     0.252911     0.695971  Biso 1.000000     N
    O   1.0     0.017392     0.670947     0.810657  Biso 1.000000     O
    O   1.0     0.907525     0.823494     0.846603  Biso 1.000000     O
    O   1.0     0.981966     0.801328     0.669826  Biso 1.000000     O
    O   1.0     0.087554     0.850314     0.823893  Biso 1.000000     O
    O   1.0     0.510890     0.328737     0.185174  Biso 1.000000     O
    O   1.0     0.398002     0.180623     0.143431  Biso 1.000000     O
    O   1.0     0.475591     0.194559     0.321342  Biso 1.000000     O
    O   1.0     0.577928     0.148084     0.166566  Biso 1.000000     O
    O   1.0     0.275345     0.694324     0.176163  Biso 1.000000     O
    O   1.0     0.169315     0.648731     0.328248  Biso 1.000000     O
    O   1.0     0.235905     0.829090     0.310544  Biso 1.000000     O
    O   1.0     0.348480     0.680725     0.356294  Biso 1.000000     O
    O   1.0     0.768978     0.300336     0.823019  Biso 1.000000     O
    O   1.0     0.659194     0.344311     0.670655  Biso 1.000000     O
    O   1.0     0.733495     0.166413     0.685545  Biso 1.000000     O
    O   1.0     0.839334     0.319561     0.644053  Biso 1.000000     O
   Cl   1.0    -0.001445     0.787307     0.788393  Biso 1.000000    Cl
   Cl   1.0     0.490616     0.212281     0.203494  Biso 1.000000    Cl
   Cl   1.0     0.257233     0.712433     0.293444  Biso 1.000000    Cl
   Cl   1.0     0.750350     0.283380     0.705158  Biso 1.000000    Cl
   Ag   1.0     0.003793     0.095117     0.103851  Biso 1.000000    Ag
   Ag   1.0     0.502478     0.901532     0.892752  Biso 1.000000    Ag
   Ag   1.0     0.247053     0.401834     0.604641  Biso 1.000000    Ag
   Ag   1.0     0.744830     0.595629     0.393745  Biso 1.000000    Ag
