#======================================================================

# CRYSTAL DATA

#----------------------------------------------------------------------

data_VESTA_phase_1


_pd_phase_name                         MOF
_cell_length_a                         14.61400
_cell_length_b                         18.28500
_cell_length_c                         18.36100
_cell_angle_alpha                      67.48200
_cell_angle_beta                       74.37400
_cell_angle_gamma                      105.42900
_symmetry_space_group_name_H-M         "P 1"
_symmetry_Int_Tables_number            1

loop_
_symmetry_equiv_pos_as_xyz
   "x, y, z"

loop_
   _atom_site_label
   _atom_site_occupancy
   _atom_site_fract_x
   _atom_site_fract_y
   _atom_site_fract_z
   _atom_site_adp_type
   _atom_site_B_iso_or_equiv
   _atom_site_type_symbol
    H   1.0     0.808734     0.042498     0.474306  Biso 1.000000     H
    H   1.0     0.560809     0.059436     0.391394  Biso 1.000000     H
    H   1.0     0.667092     0.219432     0.301269  Biso 1.000000     H
    H   1.0     0.553222     0.924904     0.403412  Biso 1.000000     H
    H   1.0     0.665329     0.925072     0.600414  Biso 1.000000     H
    H   1.0     0.579103     0.765231     0.675796  Biso 1.000000     H
    H   1.0     0.063877     0.281213     0.179113  Biso 1.000000     H
    H   1.0     0.156613     0.264106     0.054397  Biso 1.000000     H
    H   1.0     0.129194     0.326331     0.917930  Biso 1.000000     H
    H   1.0     0.007313     0.403065     0.913720  Biso 1.000000     H
    H   1.0     0.918951     0.410220     0.045014  Biso 1.000000     H
    H   1.0     0.284169     0.476379     0.483522  Biso 1.000000     H
    H   1.0     0.953138     0.392515     0.547401  Biso 1.000000     H
    H   1.0     0.970896     0.303802     0.474320  Biso 1.000000     H
    H   1.0     0.956726     0.402430     0.671293  Biso 1.000000     H
    H   1.0     0.265631     0.602243     0.478174  Biso 1.000000     H
    H   1.0     0.253386     0.676365     0.565061  Biso 1.000000     H
    H   1.0     0.245725     0.183284     0.532431  Biso 1.000000     H
    H   1.0     0.211013     0.060280     0.674064  Biso 1.000000     H
    H   1.0     0.043985     0.925190     0.748841  Biso 1.000000     H
    H   1.0     0.917558     0.920448     0.677299  Biso 1.000000     H
    H   1.0     0.963699     0.050397     0.538535  Biso 1.000000     H
    H   1.0     0.767660     0.482451     0.039697  Biso 1.000000     H
    H   1.0     0.500722     0.547129     0.061474  Biso 1.000000     H
    H   1.0     0.446410     0.475429     0.221220  Biso 1.000000     H
    H   1.0     0.626276     0.669588     0.929480  Biso 1.000000     H
    H   1.0     0.743448     0.476237     0.920346  Biso 1.000000     H
    H   1.0     0.816350     0.561731     0.761357  Biso 1.000000     H
    H   1.0     0.781553     0.535625     0.280690  Biso 1.000000     H
    H   1.0     0.889959     0.676620     0.265643  Biso 1.000000     H
    H   1.0     0.799120     0.750825     0.329832  Biso 1.000000     H
    H   1.0     0.600797     0.679237     0.406145  Biso 1.000000     H
    H   1.0     0.506665     0.541476     0.411186  Biso 1.000000     H
    H   1.0     0.191297     0.957457     0.525670  Biso 1.000000     H
    H   1.0     0.439222     0.940520     0.608582  Biso 1.000000     H
    H   1.0     0.332941     0.780523     0.698703  Biso 1.000000     H
    H   1.0     0.446811     0.075053     0.596562  Biso 1.000000     H
    H   1.0     0.334705     0.074883     0.399560  Biso 1.000000     H
    H   1.0     0.420933     0.234724     0.324175  Biso 1.000000     H
    H   1.0     0.936149     0.718739     0.820867  Biso 1.000000     H
    H   1.0     0.843411     0.735842     0.945586  Biso 1.000000     H
    H   1.0     0.870835     0.673617     0.082051  Biso 1.000000     H
    H   1.0     0.992719     0.596888     0.086256  Biso 1.000000     H
    H   1.0     0.081082     0.589737     0.954960  Biso 1.000000     H
    H   1.0     0.715851     0.523568     0.516462  Biso 1.000000     H
    H   1.0     0.046883     0.607433     0.452576  Biso 1.000000     H
    H   1.0     0.029130     0.696148     0.525655  Biso 1.000000     H
    H   1.0     0.043295     0.597527     0.328680  Biso 1.000000     H
    H   1.0     0.734390     0.397710     0.521797  Biso 1.000000     H
    H   1.0     0.746639     0.323591     0.434906  Biso 1.000000     H
    H   1.0     0.754308     0.816669     0.467541  Biso 1.000000     H
    H   1.0     0.789018     0.939675     0.325910  Biso 1.000000     H
    H   1.0     0.956047     0.074765     0.251133  Biso 1.000000     H
    H   1.0     0.082478     0.079503     0.322672  Biso 1.000000     H
    H   1.0     0.036338     0.949551     0.461434  Biso 1.000000     H
    H   1.0     0.232368     0.517498     0.960280  Biso 1.000000     H
    H   1.0     0.499300     0.452812     0.938501  Biso 1.000000     H
    H   1.0     0.553605     0.524506     0.778756  Biso 1.000000     H
    H   1.0     0.373756     0.330361     0.070498  Biso 1.000000     H
    H   1.0     0.256577     0.523711     0.079629  Biso 1.000000     H
    H   1.0     0.183686     0.438224     0.238617  Biso 1.000000     H
    H   1.0     0.218471     0.464333     0.719277  Biso 1.000000     H
    H   1.0     0.110065     0.323333     0.734333  Biso 1.000000     H
    H   1.0     0.200903     0.249125     0.670149  Biso 1.000000     H
    H   1.0     0.399226     0.320715     0.593830  Biso 1.000000     H
    H   1.0     0.493359     0.458482     0.588778  Biso 1.000000     H
    C   1.0     0.829240     0.167837     0.383144  Biso 1.000000     C
    C   1.0     0.773167     0.078406     0.437787  Biso 1.000000     C
    C   1.0     0.675532     0.036214     0.441187  Biso 1.000000     C
    C   1.0     0.636750     0.087928     0.390809  Biso 1.000000     C
    C   1.0     0.695895     0.177354     0.339948  Biso 1.000000     C
    C   1.0     0.938912     0.213353     0.373030  Biso 1.000000     C
    C   1.0     0.518316     0.802602     0.508699  Biso 1.000000     C
    C   1.0     0.562174     0.893365     0.463177  Biso 1.000000     C
    C   1.0     0.619108     0.940433     0.493143  Biso 1.000000     C
    C   1.0     0.624090     0.893453     0.571940  Biso 1.000000     C
    C   1.0     0.575958     0.803061     0.614853  Biso 1.000000     C
    C   1.0     0.460359     0.750301     0.474433  Biso 1.000000     C
    C   1.0     0.052871     0.305671     0.119298  Biso 1.000000     C
    C   1.0     0.104352     0.296802     0.049508  Biso 1.000000     C
    C   1.0     0.088964     0.331591     0.973872  Biso 1.000000     C
    C   1.0     0.022111     0.373637     0.970862  Biso 1.000000     C
    C   1.0     0.972737     0.378911     0.043861  Biso 1.000000     C
    C   1.0     0.214720     0.386114     0.446209  Biso 1.000000     C
    C   1.0     0.212394     0.439932     0.482976  Biso 1.000000     C
    C   1.0     0.117596     0.442609     0.522143  Biso 1.000000     C
    C   1.0     0.028838     0.392438     0.519244  Biso 1.000000     C
    C   1.0     0.038027     0.342430     0.478828  Biso 1.000000     C
    C   1.0     0.314760     0.376569     0.410255  Biso 1.000000     C
    C   1.0     0.026173     0.507450     0.691170  Biso 1.000000     C
    C   1.0     0.025081     0.462621     0.644457  Biso 1.000000     C
    C   1.0     0.112254     0.493746     0.567726  Biso 1.000000     C
    C   1.0     0.195650     0.572916     0.537768  Biso 1.000000     C
    C   1.0     0.189736     0.615110     0.586637  Biso 1.000000     C
    C   1.0     0.934080     0.471927     0.777568  Biso 1.000000     C
    C   1.0     0.173598     0.124124     0.567948  Biso 1.000000     C
    C   1.0     0.153702     0.055297     0.646549  Biso 1.000000     C
    C   1.0     0.060926     0.980417     0.687698  Biso 1.000000     C
    C   1.0     0.990876     0.977167     0.649095  Biso 1.000000     C
    C   1.0     0.016207     0.049250     0.570835  Biso 1.000000     C
    C   1.0     0.661659     0.446317     0.166199  Biso 1.000000     C
    C   1.0     0.695606     0.482394     0.076669  Biso 1.000000     C
    C   1.0     0.639768     0.521400     0.035886  Biso 1.000000     C
    C   1.0     0.548489     0.519131     0.088888  Biso 1.000000     C
    C   1.0     0.517802     0.479478     0.178190  Biso 1.000000     C
    C   1.0     0.725748     0.410285     0.210688  Biso 1.000000     C
    C   1.0     0.714507     0.688322     0.805472  Biso 1.000000     C
    C   1.0     0.667856     0.642469     0.895954  Biso 1.000000     C
    C   1.0     0.679223     0.566135     0.940334  Biso 1.000000     C
    C   1.0     0.732459     0.535633     0.891024  Biso 1.000000     C
    C   1.0     0.774411     0.583715     0.801082  Biso 1.000000     C
    C   1.0     0.707132     0.773995     0.755921  Biso 1.000000     C
    C   1.0     0.745490     0.570941     0.305981  Biso 1.000000     C
    C   1.0     0.805076     0.649172     0.298239  Biso 1.000000     C
    C   1.0     0.754241     0.690010     0.334096  Biso 1.000000     C
    C   1.0     0.645475     0.651444     0.375962  Biso 1.000000     C
    C   1.0     0.591622     0.573595     0.380046  Biso 1.000000     C
    C   1.0     0.170792     0.832118     0.616830  Biso 1.000000     C
    C   1.0     0.226866     0.921549     0.562186  Biso 1.000000     C
    C   1.0     0.324500     0.963741     0.558788  Biso 1.000000     C
    C   1.0     0.363283     0.912027     0.609164  Biso 1.000000     C
    C   1.0     0.304138     0.822601     0.660024  Biso 1.000000     C
    C   1.0     0.061117     0.786603     0.626949  Biso 1.000000     C
    C   1.0     0.481713     0.197354     0.491276  Biso 1.000000     C
    C   1.0     0.437856     0.106592     0.536798  Biso 1.000000     C
    C   1.0     0.380924     0.059523     0.506830  Biso 1.000000     C
    C   1.0     0.375941     0.106503     0.428034  Biso 1.000000     C
    C   1.0     0.424077     0.196894     0.385119  Biso 1.000000     C
    C   1.0     0.539665     0.249657     0.525543  Biso 1.000000     C
    C   1.0     0.947156     0.694282     0.880682  Biso 1.000000     C
    C   1.0     0.895674     0.703148     0.950472  Biso 1.000000     C
    C   1.0     0.911065     0.668358     0.026108  Biso 1.000000     C
    C   1.0     0.977921     0.626315     0.029115  Biso 1.000000     C
    C   1.0     0.027294     0.621043     0.956115  Biso 1.000000     C
    C   1.0     0.785305     0.613840     0.553765  Biso 1.000000     C
    C   1.0     0.787631     0.560026     0.516995  Biso 1.000000     C
    C   1.0     0.882427     0.557342     0.477833  Biso 1.000000     C
    C   1.0     0.971187     0.607518     0.480725  Biso 1.000000     C
    C   1.0     0.961998     0.657522     0.521147  Biso 1.000000     C
    C   1.0     0.685263     0.623379     0.589733  Biso 1.000000     C
    C   1.0     0.973856     0.492502     0.308806  Biso 1.000000     C
    C   1.0     0.974945     0.537332     0.355518  Biso 1.000000     C
    C   1.0     0.887769     0.506209     0.432247  Biso 1.000000     C
    C   1.0     0.804376     0.427036     0.462206  Biso 1.000000     C
    C   1.0     0.810289     0.384845     0.413334  Biso 1.000000     C
    C   1.0     0.065954     0.528024     0.222412  Biso 1.000000     C
    C   1.0     0.826436     0.875828     0.432023  Biso 1.000000     C
    C   1.0     0.846331     0.944657     0.353423  Biso 1.000000     C
    C   1.0     0.939108     0.019536     0.312275  Biso 1.000000     C
    C   1.0     0.009159     0.022783     0.350876  Biso 1.000000     C
    C   1.0     0.983829     0.950699     0.429135  Biso 1.000000     C
    C   1.0     0.338365     0.553628     0.833778  Biso 1.000000     C
    C   1.0     0.304419     0.517552     0.923308  Biso 1.000000     C
    C   1.0     0.360257     0.478545     0.964091  Biso 1.000000     C
    C   1.0     0.451533     0.480810     0.911089  Biso 1.000000     C
    C   1.0     0.482217     0.520460     0.821787  Biso 1.000000     C
    C   1.0     0.274280     0.589668     0.789289  Biso 1.000000     C
    C   1.0     0.285527     0.311631     0.194506  Biso 1.000000     C
    C   1.0     0.332176     0.357481     0.104023  Biso 1.000000     C
    C   1.0     0.320806     0.433814     0.059642  Biso 1.000000     C
    C   1.0     0.267570     0.464316     0.108951  Biso 1.000000     C
    C   1.0     0.225624     0.416239     0.198893  Biso 1.000000     C
    C   1.0     0.292900     0.225957     0.244059  Biso 1.000000     C
    C   1.0     0.254534     0.429016     0.693987  Biso 1.000000     C
    C   1.0     0.194948     0.350783     0.701734  Biso 1.000000     C
    C   1.0     0.245782     0.309943     0.665881  Biso 1.000000     C
    C   1.0     0.354548     0.348510     0.624011  Biso 1.000000     C
    C   1.0     0.408402     0.426362     0.619921  Biso 1.000000     C
    N   1.0     0.791106     0.216797     0.334761  Biso 1.000000     N
    N   1.0     0.526717     0.758590     0.582777  Biso 1.000000     N
    N   1.0     0.987604     0.345789     0.116992  Biso 1.000000     N
    N   1.0     0.128557     0.337934     0.444131  Biso 1.000000     N
    N   1.0     0.108264     0.581987     0.662710  Biso 1.000000     N
    N   1.0     0.105954     0.121601     0.530444  Biso 1.000000     N
    N   1.0     0.573794     0.444872     0.216387  Biso 1.000000     N
    N   1.0     0.768124     0.659477     0.759266  Biso 1.000000     N
    N   1.0     0.640230     0.533526     0.345975  Biso 1.000000     N
    N   1.0     0.208925     0.783158     0.665216  Biso 1.000000     N
    N   1.0     0.473319     0.241366     0.417194  Biso 1.000000     N
    N   1.0     0.012425     0.654166     0.882984  Biso 1.000000     N
    N   1.0     0.871465     0.662007     0.555858  Biso 1.000000     N
    N   1.0     0.891757     0.417974     0.337257  Biso 1.000000     N
    N   1.0     0.894081     0.878349     0.469526  Biso 1.000000     N
    N   1.0     0.426227     0.555069     0.783590  Biso 1.000000     N
    N   1.0     0.231913     0.340478     0.240711  Biso 1.000000     N
    N   1.0     0.359793     0.466432     0.653990  Biso 1.000000     N
    O   1.0     0.993421     0.291261     0.313558  Biso 1.000000     O
    O   1.0     0.968774     0.167921     0.425831  Biso 1.000000     O
    O   1.0     0.450592     0.670936     0.502903  Biso 1.000000     O
    O   1.0     0.427622     0.788341     0.422144  Biso 1.000000     O
    O   1.0     0.310375     0.317392     0.390113  Biso 1.000000     O
    O   1.0     0.397244     0.429350     0.404185  Biso 1.000000     O
    O   1.0     0.952601     0.500682     0.828653  Biso 1.000000     O
    O   1.0     0.849381     0.418426     0.791532  Biso 1.000000     O
    O   1.0     0.701289     0.390344     0.289314  Biso 1.000000     O
    O   1.0     0.802074     0.403960     0.163932  Biso 1.000000     O
    O   1.0     0.776340     0.825200     0.676864  Biso 1.000000     O
    O   1.0     0.635461     0.787319     0.795528  Biso 1.000000     O
    O   1.0     0.006612     0.708693     0.686418  Biso 1.000000     O
    O   1.0     0.031254     0.832033     0.574148  Biso 1.000000     O
    O   1.0     0.549430     0.329021     0.497072  Biso 1.000000     O
    O   1.0     0.572387     0.211614     0.577844  Biso 1.000000     O
    O   1.0     0.689656     0.682566     0.609860  Biso 1.000000     O
    O   1.0     0.602782     0.570608     0.595789  Biso 1.000000     O
    O   1.0     0.047445     0.499262     0.171328  Biso 1.000000     O
    O   1.0     0.150659     0.581505     0.208464  Biso 1.000000     O
    O   1.0     0.298739     0.609612     0.710662  Biso 1.000000     O
    O   1.0     0.197954     0.595992     0.836046  Biso 1.000000     O
    O   1.0     0.223685     0.174750     0.323112  Biso 1.000000     O
    O   1.0     0.364570     0.212632     0.204453  Biso 1.000000     O
   Cd   1.0     0.907682     0.367510     0.234967  Biso 1.000000    Cd
   Cd   1.0     0.146095     0.238421     0.391330  Biso 1.000000    Cd
   Cd   1.0     0.539472     0.393830     0.366596  Biso 1.000000    Cd
   Cd   1.0     0.092350     0.632445     0.765007  Biso 1.000000    Cd
   Cd   1.0     0.853934     0.761532     0.608646  Biso 1.000000    Cd
   Cd   1.0     0.460553     0.606124     0.633377  Biso 1.000000    Cd
