#======================================================================

# CRYSTAL DATA

#----------------------------------------------------------------------

data_VESTA_phase_1


_pd_phase_name                         MOF
_cell_length_a                         13.18300
_cell_length_b                         13.17300
_cell_length_c                         13.98000
_cell_angle_alpha                      105.56500
_cell_angle_beta                       105.29200
_cell_angle_gamma                      93.37900
_symmetry_space_group_name_H-M         "P 1"
_symmetry_Int_Tables_number            1

loop_
_symmetry_equiv_pos_as_xyz
   "x, y, z"

loop_
   _atom_site_label
   _atom_site_occupancy
   _atom_site_fract_x
   _atom_site_fract_y
   _atom_site_fract_z
   _atom_site_adp_type
   _atom_site_B_iso_or_equiv
   _atom_site_type_symbol
    H   1.0     0.525670     0.900898     0.947531  Biso 1.000000     H
    H   1.0     0.716625     0.897919     0.961972  Biso 1.000000     H
    H   1.0     0.448660     0.823475     0.615652  Biso 1.000000     H
    H   1.0     0.860249     0.864379     0.874871  Biso 1.000000     H
    H   1.0     0.038431     0.921674     0.984943  Biso 1.000000     H
    H   1.0     0.008311     0.912830     0.150470  Biso 1.000000     H
    H   1.0     0.313512     0.801821     0.223612  Biso 1.000000     H
    H   1.0     0.403528     0.885018     0.043695  Biso 1.000000     H
    H   1.0     0.415304     0.783033     0.106402  Biso 1.000000     H
    H   1.0     0.341809     0.754000     0.972370  Biso 1.000000     H
    H   1.0     0.785779     0.804314     0.544752  Biso 1.000000     H
    H   1.0     0.594346     0.806462     0.530698  Biso 1.000000     H
    H   1.0     0.098203     0.472356     0.551634  Biso 1.000000     H
    H   1.0     0.101341     0.281388     0.537909  Biso 1.000000     H
    H   1.0     0.176087     0.552350     0.883746  Biso 1.000000     H
    H   1.0     0.135551     0.138643     0.625666  Biso 1.000000     H
    H   1.0     0.077862     0.961097     0.515679  Biso 1.000000     H
    H   1.0     0.086228     0.991024     0.349928  Biso 1.000000     H
    H   1.0     0.197548     0.685424     0.275237  Biso 1.000000     H
    H   1.0     0.115237     0.595378     0.455481  Biso 1.000000     H
    H   1.0     0.217115     0.583837     0.392378  Biso 1.000000     H
    H   1.0     0.245821     0.657687     0.526562  Biso 1.000000     H
    H   1.0     0.195979     0.215979     0.956080  Biso 1.000000     H
    H   1.0     0.193438     0.407488     0.969426  Biso 1.000000     H
    H   1.0     0.474356     0.099125     0.052502  Biso 1.000000     H
    H   1.0     0.283401     0.102102     0.038061  Biso 1.000000     H
    H   1.0     0.551366     0.176550     0.384382  Biso 1.000000     H
    H   1.0     0.139777     0.135643     0.125162  Biso 1.000000     H
    H   1.0     0.961598     0.078350     0.015092  Biso 1.000000     H
    H   1.0     0.991721     0.087194     0.849566  Biso 1.000000     H
    H   1.0     0.686519     0.198198     0.776418  Biso 1.000000     H
    H   1.0     0.596502     0.115002     0.956335  Biso 1.000000     H
    H   1.0     0.584723     0.216982     0.893623  Biso 1.000000     H
    H   1.0     0.658216     0.246022     0.027656  Biso 1.000000     H
    H   1.0     0.214247     0.195708     0.455282  Biso 1.000000     H
    H   1.0     0.405680     0.193561     0.469336  Biso 1.000000     H
    H   1.0     0.901824     0.527668     0.448396  Biso 1.000000     H
    H   1.0     0.898688     0.718636     0.462123  Biso 1.000000     H
    H   1.0     0.823945     0.447675     0.116286  Biso 1.000000     H
    H   1.0     0.864478     0.861382     0.374365  Biso 1.000000     H
    H   1.0     0.922167     0.038927     0.484352  Biso 1.000000     H
    H   1.0     0.913804     0.008999     0.650103  Biso 1.000000     H
    H   1.0     0.802487     0.314600     0.724799  Biso 1.000000     H
    H   1.0     0.884794     0.404646     0.544553  Biso 1.000000     H
    H   1.0     0.782917     0.416187     0.607658  Biso 1.000000     H
    H   1.0     0.754210     0.342337     0.473473  Biso 1.000000     H
    H   1.0     0.804057     0.784048     0.043953  Biso 1.000000     H
    H   1.0     0.806600     0.592538     0.030606  Biso 1.000000     H
    C   1.0     0.359431     0.856278     0.771025  Biso 1.000000     C
    C   1.0     0.475610     0.860311     0.779654  Biso 1.000000     C
    C   1.0     0.552292     0.882748     0.878207  Biso 1.000000     C
    C   1.0     0.658428     0.880726     0.885922  Biso 1.000000     C
    C   1.0     0.508241     0.839964     0.690740  Biso 1.000000     C
    C   1.0     0.693661     0.857889     0.795591  Biso 1.000000     C
    C   1.0     0.801690     0.852874     0.800144  Biso 1.000000     C
    C   1.0     0.098087     0.897355     0.041469  Biso 1.000000     C
    C   1.0     0.081579     0.891250     0.133786  Biso 1.000000     C
    C   1.0     0.158688     0.853873     0.200932  Biso 1.000000     C
    C   1.0     0.250181     0.828335     0.172250  Biso 1.000000     C
    C   1.0     0.263303     0.838195     0.079123  Biso 1.000000     C
    C   1.0     0.361731     0.813083     0.049144  Biso 1.000000     C
    C   1.0     0.834763     0.834202     0.711463  Biso 1.000000     C
    C   1.0     0.950528     0.834331     0.719132  Biso 1.000000     C
    C   1.0     0.758661     0.818444     0.613655  Biso 1.000000     C
    C   1.0     0.652623     0.820094     0.606214  Biso 1.000000     C
    C   1.0     0.616844     0.839498     0.696052  Biso 1.000000     C
    C   1.0     0.143302     0.640172     0.728103  Biso 1.000000     C
    C   1.0     0.139117     0.523913     0.719630  Biso 1.000000     C
    C   1.0     0.116508     0.446413     0.621185  Biso 1.000000     C
    C   1.0     0.118649     0.340249     0.613858  Biso 1.000000     C
    C   1.0     0.159533     0.492075     0.808791  Biso 1.000000     C
    C   1.0     0.141728     0.305862     0.704455  Biso 1.000000     C
    C   1.0     0.147031     0.197873     0.700285  Biso 1.000000     C
    C   1.0     0.102165     0.901326     0.458743  Biso 1.000000     C
    C   1.0     0.107977     0.917720     0.366342  Biso 1.000000     C
    C   1.0     0.145309     0.840442     0.298690  Biso 1.000000     C
    C   1.0     0.171053     0.748893     0.326978  Biso 1.000000     C
    C   1.0     0.161500     0.735896     0.420238  Biso 1.000000     C
    C   1.0     0.186913     0.637458     0.449886  Biso 1.000000     C
    C   1.0     0.165880     0.165555     0.789198  Biso 1.000000     C
    C   1.0     0.165881     0.049691     0.781571  Biso 1.000000     C
    C   1.0     0.181688     0.242457     0.886946  Biso 1.000000     C
    C   1.0     0.179794     0.348523     0.894011  Biso 1.000000     C
    C   1.0     0.160170     0.383494     0.803897  Biso 1.000000     C
    C   1.0     0.640596     0.143750     0.229008  Biso 1.000000     C
    C   1.0     0.524416     0.139712     0.220379  Biso 1.000000     C
    C   1.0     0.447734     0.117276     0.121827  Biso 1.000000     C
    C   1.0     0.341598     0.119296     0.114111  Biso 1.000000     C
    C   1.0     0.491785     0.160061     0.309293  Biso 1.000000     C
    C   1.0     0.306365     0.142132     0.204442  Biso 1.000000     C
    C   1.0     0.198336     0.147148     0.199889  Biso 1.000000     C
    C   1.0     0.901944     0.102669     0.958565  Biso 1.000000     C
    C   1.0     0.918453     0.108772     0.866249  Biso 1.000000     C
    C   1.0     0.841345     0.146149     0.799102  Biso 1.000000     C
    C   1.0     0.749850     0.171684     0.827780  Biso 1.000000     C
    C   1.0     0.736726     0.161826     0.920908  Biso 1.000000     C
    C   1.0     0.638297     0.186936     0.950884  Biso 1.000000     C
    C   1.0     0.165263     0.165823     0.288570  Biso 1.000000     C
    C   1.0     0.049498     0.165690     0.280900  Biso 1.000000     C
    C   1.0     0.241365     0.181578     0.386378  Biso 1.000000     C
    C   1.0     0.347403     0.179928     0.393819  Biso 1.000000     C
    C   1.0     0.383182     0.160526     0.303981  Biso 1.000000     C
    C   1.0     0.856723     0.359853     0.271928  Biso 1.000000     C
    C   1.0     0.860915     0.476112     0.280401  Biso 1.000000     C
    C   1.0     0.883519     0.553611     0.378846  Biso 1.000000     C
    C   1.0     0.881380     0.659775     0.386174  Biso 1.000000     C
    C   1.0     0.840498     0.507951     0.191240  Biso 1.000000     C
    C   1.0     0.858304     0.694163     0.295577  Biso 1.000000     C
    C   1.0     0.853000     0.802152     0.299747  Biso 1.000000     C
    C   1.0     0.897865     0.098698     0.541289  Biso 1.000000     C
    C   1.0     0.892055     0.082303     0.633691  Biso 1.000000     C
    C   1.0     0.854724     0.159580     0.701343  Biso 1.000000     C
    C   1.0     0.828982     0.251131     0.673057  Biso 1.000000     C
    C   1.0     0.838531     0.264128     0.579796  Biso 1.000000     C
    C   1.0     0.813118     0.362566     0.550149  Biso 1.000000     C
    C   1.0     0.834149     0.834470     0.210833  Biso 1.000000     C
    C   1.0     0.834150     0.950335     0.218461  Biso 1.000000     C
    C   1.0     0.818347     0.757569     0.113086  Biso 1.000000     C
    C   1.0     0.820242     0.651503     0.106022  Biso 1.000000     C
    C   1.0     0.839863     0.616532     0.196135  Biso 1.000000     C
    N   1.0     0.185975     0.871611     0.013612  Biso 1.000000     N
    N   1.0     0.128200     0.813434     0.486254  Biso 1.000000     N
    N   1.0     0.814054     0.128411     0.986420  Biso 1.000000     N
    N   1.0     0.871830     0.186589     0.513779  Biso 1.000000     N
    O   1.0     0.334198     0.894270     0.854241  Biso 1.000000     O
    O   1.0     0.294784     0.814016     0.680985  Biso 1.000000     O
    O   1.0     0.977559     0.835540     0.637819  Biso 1.000000     O
    O   1.0     0.013526     0.835476     0.805741  Biso 1.000000     O
    O   1.0     0.105520     0.665143     0.644991  Biso 1.000000     O
    O   1.0     0.185647     0.705208     0.818078  Biso 1.000000     O
    O   1.0     0.164558     0.022873     0.862859  Biso 1.000000     O
    O   1.0     0.164754     0.986331     0.694795  Biso 1.000000     O
    O   1.0     0.665828     0.105756     0.145792  Biso 1.000000     O
    O   1.0     0.705242     0.186008     0.319048  Biso 1.000000     O
    O   1.0     0.022466     0.164486     0.362215  Biso 1.000000     O
    O   1.0     0.986500     0.164549     0.194293  Biso 1.000000     O
    O   1.0     0.894506     0.334881     0.355040  Biso 1.000000     O
    O   1.0     0.814380     0.294817     0.181952  Biso 1.000000     O
    O   1.0     0.835467     0.977152     0.137172  Biso 1.000000     O
    O   1.0     0.835271     0.013694     0.305236  Biso 1.000000     O
   Zn   1.0     0.181642     0.866902     0.862407  Biso 1.000000    Zn
   Zn   1.0     0.133247     0.818132     0.637629  Biso 1.000000    Zn
   Zn   1.0     0.818384     0.133123     0.137625  Biso 1.000000    Zn
   Zn   1.0     0.866778     0.181893     0.362403  Biso 1.000000    Zn
