#======================================================================

# CRYSTAL DATA

#----------------------------------------------------------------------

data_VESTA_phase_1


_pd_phase_name                         MOF
_cell_length_a                         15.44200
_cell_length_b                         20.33600
_cell_length_c                         13.46300
_cell_angle_alpha                      68.14800
_cell_angle_beta                       84.67700
_cell_angle_gamma                      76.44600
_symmetry_space_group_name_H-M         "P 1"
_symmetry_Int_Tables_number            1

loop_
_symmetry_equiv_pos_as_xyz
   "x, y, z"

loop_
   _atom_site_label
   _atom_site_occupancy
   _atom_site_fract_x
   _atom_site_fract_y
   _atom_site_fract_z
   _atom_site_adp_type
   _atom_site_B_iso_or_equiv
   _atom_site_type_symbol
    H   1.0     0.360237     0.121906     0.673090  Biso 1.000000     H
    H   1.0     0.360244     0.621926     0.673090  Biso 1.000000     H
    H   1.0     0.860230     0.121907     0.673090  Biso 1.000000     H
    H   1.0     0.860235     0.621928     0.673090  Biso 1.000000     H
    H   1.0     0.327246     0.183804     0.947965  Biso 1.000000     H
    H   1.0     0.327252     0.683824     0.947966  Biso 1.000000     H
    H   1.0     0.827232     0.183805     0.947964  Biso 1.000000     H
    H   1.0     0.827238     0.683826     0.947965  Biso 1.000000     H
    H   1.0     0.299533     0.366643     0.473670  Biso 1.000000     H
    H   1.0     0.299537     0.866664     0.473670  Biso 1.000000     H
    H   1.0     0.799527     0.366644     0.473671  Biso 1.000000     H
    H   1.0     0.799530     0.866666     0.473671  Biso 1.000000     H
    H   1.0     0.343385     0.345145     0.635385  Biso 1.000000     H
    H   1.0     0.343386     0.845166     0.635385  Biso 1.000000     H
    H   1.0     0.843378     0.345146     0.635386  Biso 1.000000     H
    H   1.0     0.843379     0.845167     0.635387  Biso 1.000000     H
    H   1.0     0.466340     0.173765     0.343605  Biso 1.000000     H
    H   1.0     0.466343     0.673786     0.343604  Biso 1.000000     H
    H   1.0     0.966332     0.173766     0.343605  Biso 1.000000     H
    H   1.0     0.966335     0.673788     0.343605  Biso 1.000000     H
    H   1.0     0.443948     0.146084     0.537887  Biso 1.000000     H
    H   1.0     0.443951     0.646105     0.537886  Biso 1.000000     H
    H   1.0     0.943940     0.146084     0.537887  Biso 1.000000     H
    H   1.0     0.943943     0.646106     0.537888  Biso 1.000000     H
    H   1.0     0.328595     0.394659     0.279924  Biso 1.000000     H
    H   1.0     0.328597     0.894681     0.279924  Biso 1.000000     H
    H   1.0     0.828589     0.394660     0.279925  Biso 1.000000     H
    H   1.0     0.828593     0.894682     0.279925  Biso 1.000000     H
    H   1.0     0.139811     0.378145     0.326840  Biso 1.000000     H
    H   1.0     0.139816     0.878166     0.326840  Biso 1.000000     H
    H   1.0     0.639802     0.378147     0.326839  Biso 1.000000     H
    H   1.0     0.639809     0.878168     0.326840  Biso 1.000000     H
    H   1.0     0.172804     0.316231     0.051979  Biso 1.000000     H
    H   1.0     0.172812     0.816252     0.051981  Biso 1.000000     H
    H   1.0     0.672785     0.316234     0.051978  Biso 1.000000     H
    H   1.0     0.672800     0.816254     0.051979  Biso 1.000000     H
    H   1.0     0.200491     0.133412     0.526273  Biso 1.000000     H
    H   1.0     0.200495     0.633434     0.526274  Biso 1.000000     H
    H   1.0     0.700486     0.133413     0.526273  Biso 1.000000     H
    H   1.0     0.700489     0.633436     0.526274  Biso 1.000000     H
    H   1.0     0.156628     0.154907     0.364564  Biso 1.000000     H
    H   1.0     0.156631     0.654929     0.364566  Biso 1.000000     H
    H   1.0     0.656620     0.154909     0.364565  Biso 1.000000     H
    H   1.0     0.656624     0.654930     0.364566  Biso 1.000000     H
    H   1.0     0.033679     0.326291     0.656331  Biso 1.000000     H
    H   1.0     0.033682     0.826313     0.656332  Biso 1.000000     H
    H   1.0     0.533672     0.326292     0.656331  Biso 1.000000     H
    H   1.0     0.533673     0.826314     0.656332  Biso 1.000000     H
    H   1.0     0.056086     0.353974     0.462049  Biso 1.000000     H
    H   1.0     0.056090     0.853995     0.462050  Biso 1.000000     H
    H   1.0     0.556079     0.353974     0.462050  Biso 1.000000     H
    H   1.0     0.556082     0.853996     0.462050  Biso 1.000000     H
    H   1.0     0.171419     0.105394     0.720016  Biso 1.000000     H
    H   1.0     0.171422     0.605416     0.720017  Biso 1.000000     H
    H   1.0     0.671414     0.105396     0.720016  Biso 1.000000     H
    H   1.0     0.671417     0.605417     0.720017  Biso 1.000000     H
    C   1.0     0.339037     0.069062     0.884245  Biso 1.000000     C
    C   1.0     0.339034     0.569081     0.884245  Biso 1.000000     C
    C   1.0     0.839032     0.069063     0.884244  Biso 1.000000     C
    C   1.0     0.839033     0.569081     0.884247  Biso 1.000000     C
    C   1.0     0.343334     0.145445     0.816288  Biso 1.000000     C
    C   1.0     0.343342     0.645464     0.816289  Biso 1.000000     C
    C   1.0     0.843319     0.145447     0.816286  Biso 1.000000     C
    C   1.0     0.843326     0.645466     0.816288  Biso 1.000000     C
    C   1.0     0.354065     0.164434     0.705509  Biso 1.000000     C
    C   1.0     0.354071     0.664454     0.705509  Biso 1.000000     C
    C   1.0     0.854062     0.164435     0.705509  Biso 1.000000     C
    C   1.0     0.854066     0.664455     0.705510  Biso 1.000000     C
    C   1.0     0.334719     0.270088     0.795418  Biso 1.000000     C
    C   1.0     0.334723     0.770107     0.795418  Biso 1.000000     C
    C   1.0     0.834701     0.270090     0.795419  Biso 1.000000     C
    C   1.0     0.834705     0.770110     0.795418  Biso 1.000000     C
    C   1.0     0.327646     0.326929     0.842421  Biso 1.000000     C
    C   1.0     0.327649     0.826948     0.842423  Biso 1.000000     C
    C   1.0     0.827640     0.326931     0.842419  Biso 1.000000     C
    C   1.0     0.827643     0.826950     0.842421  Biso 1.000000     C
    C   1.0     0.334780     0.198282     0.861754  Biso 1.000000     C
    C   1.0     0.334788     0.698301     0.861756  Biso 1.000000     C
    C   1.0     0.834773     0.198283     0.861755  Biso 1.000000     C
    C   1.0     0.834780     0.698302     0.861756  Biso 1.000000     C
    C   1.0     0.337756     0.324164     0.446288  Biso 1.000000     C
    C   1.0     0.337759     0.824186     0.446287  Biso 1.000000     C
    C   1.0     0.837750     0.324166     0.446288  Biso 1.000000     C
    C   1.0     0.837753     0.824187     0.446289  Biso 1.000000     C
    C   1.0     0.343065     0.288831     0.684308  Biso 1.000000     C
    C   1.0     0.343069     0.788852     0.684308  Biso 1.000000     C
    C   1.0     0.843059     0.288831     0.684309  Biso 1.000000     C
    C   1.0     0.843065     0.788852     0.684309  Biso 1.000000     C
    C   1.0     0.430173     0.215700     0.373063  Biso 1.000000     C
    C   1.0     0.430177     0.715721     0.373062  Biso 1.000000     C
    C   1.0     0.930164     0.215701     0.373063  Biso 1.000000     C
    C   1.0     0.930169     0.715723     0.373064  Biso 1.000000     C
    C   1.0     0.399006     0.285870     0.299180  Biso 1.000000     C
    C   1.0     0.399008     0.785891     0.299181  Biso 1.000000     C
    C   1.0     0.898999     0.285871     0.299182  Biso 1.000000     C
    C   1.0     0.899003     0.785892     0.299183  Biso 1.000000     C
    C   1.0     0.354729     0.236038     0.637600  Biso 1.000000     C
    C   1.0     0.354735     0.736059     0.637602  Biso 1.000000     C
    C   1.0     0.854714     0.236041     0.637599  Biso 1.000000     C
    C   1.0     0.854718     0.736062     0.637600  Biso 1.000000     C
    C   1.0     0.416180     0.200292     0.481977  Biso 1.000000     C
    C   1.0     0.416182     0.700314     0.481977  Biso 1.000000     C
    C   1.0     0.916173     0.200293     0.481978  Biso 1.000000     C
    C   1.0     0.916176     0.700315     0.481978  Biso 1.000000     C
    C   1.0     0.369079     0.253978     0.521037  Biso 1.000000     C
    C   1.0     0.369082     0.753999     0.521037  Biso 1.000000     C
    C   1.0     0.869072     0.253979     0.521037  Biso 1.000000     C
    C   1.0     0.869076     0.754000     0.521038  Biso 1.000000     C
    C   1.0     0.353005     0.340136     0.337063  Biso 1.000000     C
    C   1.0     0.353008     0.840158     0.337063  Biso 1.000000     C
    C   1.0     0.852997     0.340137     0.337063  Biso 1.000000     C
    C   1.0     0.853002     0.840159     0.337064  Biso 1.000000     C
    C   1.0     0.414954     0.301709     0.182119  Biso 1.000000     C
    C   1.0     0.414959     0.801730     0.182122  Biso 1.000000     C
    C   1.0     0.914947     0.301709     0.182120  Biso 1.000000     C
    C   1.0     0.914950     0.801730     0.182122  Biso 1.000000     C
    C   1.0     0.160979     0.430986     0.115675  Biso 1.000000     C
    C   1.0     0.160980     0.931005     0.115678  Biso 1.000000     C
    C   1.0     0.660977     0.430986     0.115676  Biso 1.000000     C
    C   1.0     0.660975     0.931005     0.115676  Biso 1.000000     C
    C   1.0     0.156730     0.354595     0.183651  Biso 1.000000     C
    C   1.0     0.156740     0.854613     0.183654  Biso 1.000000     C
    C   1.0     0.656707     0.354599     0.183649  Biso 1.000000     C
    C   1.0     0.656727     0.854615     0.183652  Biso 1.000000     C
    C   1.0     0.145964     0.335617     0.294426  Biso 1.000000     C
    C   1.0     0.145967     0.835637     0.294428  Biso 1.000000     C
    C   1.0     0.645958     0.335618     0.294425  Biso 1.000000     C
    C   1.0     0.645962     0.835639     0.294426  Biso 1.000000     C
    C   1.0     0.165334     0.229952     0.204532  Biso 1.000000     C
    C   1.0     0.165344     0.729971     0.204533  Biso 1.000000     C
    C   1.0     0.665309     0.229955     0.204531  Biso 1.000000     C
    C   1.0     0.665329     0.729973     0.204532  Biso 1.000000     C
    C   1.0     0.172354     0.173107     0.157547  Biso 1.000000     C
    C   1.0     0.172358     0.673127     0.157548  Biso 1.000000     C
    C   1.0     0.672350     0.173109     0.157545  Biso 1.000000     C
    C   1.0     0.672352     0.673128     0.157548  Biso 1.000000     C
    C   1.0     0.165241     0.301761     0.138186  Biso 1.000000     C
    C   1.0     0.165244     0.801781     0.138187  Biso 1.000000     C
    C   1.0     0.665236     0.301761     0.138186  Biso 1.000000     C
    C   1.0     0.665239     0.801782     0.138186  Biso 1.000000     C
    C   1.0     0.162264     0.175890     0.553654  Biso 1.000000     C
    C   1.0     0.162266     0.675911     0.553655  Biso 1.000000     C
    C   1.0     0.662261     0.175892     0.553655  Biso 1.000000     C
    C   1.0     0.662260     0.675913     0.553655  Biso 1.000000     C
    C   1.0     0.156945     0.211221     0.315637  Biso 1.000000     C
    C   1.0     0.156949     0.711242     0.315637  Biso 1.000000     C
    C   1.0     0.656942     0.211222     0.315638  Biso 1.000000     C
    C   1.0     0.656943     0.711243     0.315637  Biso 1.000000     C
    C   1.0     0.069849     0.284356     0.626876  Biso 1.000000     C
    C   1.0     0.069852     0.784377     0.626877  Biso 1.000000     C
    C   1.0     0.569841     0.284357     0.626876  Biso 1.000000     C
    C   1.0     0.569844     0.784378     0.626877  Biso 1.000000     C
    C   1.0     0.101004     0.214184     0.700759  Biso 1.000000     C
    C   1.0     0.101008     0.714205     0.700760  Biso 1.000000     C
    C   1.0     0.601001     0.214186     0.700759  Biso 1.000000     C
    C   1.0     0.601001     0.714206     0.700760  Biso 1.000000     C
    C   1.0     0.145328     0.264009     0.362344  Biso 1.000000     C
    C   1.0     0.145336     0.764030     0.362346  Biso 1.000000     C
    C   1.0     0.645311     0.264012     0.362343  Biso 1.000000     C
    C   1.0     0.645325     0.764032     0.362344  Biso 1.000000     C
    C   1.0     0.083846     0.299763     0.517961  Biso 1.000000     C
    C   1.0     0.083848     0.799784     0.517962  Biso 1.000000     C
    C   1.0     0.583842     0.299764     0.517961  Biso 1.000000     C
    C   1.0     0.583841     0.799785     0.517962  Biso 1.000000     C
    C   1.0     0.130951     0.246078     0.478903  Biso 1.000000     C
    C   1.0     0.130956     0.746100     0.478905  Biso 1.000000     C
    C   1.0     0.630941     0.246078     0.478904  Biso 1.000000     C
    C   1.0     0.630947     0.746101     0.478904  Biso 1.000000     C
    C   1.0     0.147013     0.159919     0.662879  Biso 1.000000     C
    C   1.0     0.147017     0.659941     0.662880  Biso 1.000000     C
    C   1.0     0.647007     0.159920     0.662879  Biso 1.000000     C
    C   1.0     0.647011     0.659942     0.662880  Biso 1.000000     C
    C   1.0     0.085054     0.198345     0.817821  Biso 1.000000     C
    C   1.0     0.085059     0.698366     0.817824  Biso 1.000000     C
    C   1.0     0.585045     0.198345     0.817821  Biso 1.000000     C
    C   1.0     0.585050     0.698367     0.817823  Biso 1.000000     C
    O   1.0     0.359832     0.021520     0.840274  Biso 1.000000     O
    O   1.0     0.359832     0.521537     0.840279  Biso 1.000000     O
    O   1.0     0.859829     0.021521     0.840273  Biso 1.000000     O
    O   1.0     0.859828     0.521538     0.840278  Biso 1.000000     O
    O   1.0     0.315409     0.052939     0.982645  Biso 1.000000     O
    O   1.0     0.315414     0.552958     0.982648  Biso 1.000000     O
    O   1.0     0.815404     0.052937     0.982644  Biso 1.000000     O
    O   1.0     0.815408     0.552957     0.982648  Biso 1.000000     O
    O   1.0     0.355564     0.305520     0.941443  Biso 1.000000     O
    O   1.0     0.355569     0.805537     0.941444  Biso 1.000000     O
    O   1.0     0.855550     0.305520     0.941446  Biso 1.000000     O
    O   1.0     0.855554     0.805537     0.941447  Biso 1.000000     O
    O   1.0     0.295905     0.392448     0.791600  Biso 1.000000     O
    O   1.0     0.295909     0.892467     0.791603  Biso 1.000000     O
    O   1.0     0.795901     0.392450     0.791597  Biso 1.000000     O
    O   1.0     0.795905     0.892469     0.791599  Biso 1.000000     O
    O   1.0     0.455965     0.246689     0.157725  Biso 1.000000     O
    O   1.0     0.455969     0.746710     0.157727  Biso 1.000000     O
    O   1.0     0.955955     0.246689     0.157726  Biso 1.000000     O
    O   1.0     0.955961     0.746711     0.157728  Biso 1.000000     O
    O   1.0     0.389216     0.366096     0.116984  Biso 1.000000     O
    O   1.0     0.389222     0.866117     0.116987  Biso 1.000000     O
    O   1.0     0.889208     0.366097     0.116986  Biso 1.000000     O
    O   1.0     0.889214     0.866118     0.116988  Biso 1.000000     O
    O   1.0     0.140189     0.478531     0.159641  Biso 1.000000     O
    O   1.0     0.140190     0.978549     0.159644  Biso 1.000000     O
    O   1.0     0.640186     0.478532     0.159640  Biso 1.000000     O
    O   1.0     0.640185     0.978550     0.159642  Biso 1.000000     O
    O   1.0     0.184610     0.447106     0.017277  Biso 1.000000     O
    O   1.0     0.184613     0.947124     0.017280  Biso 1.000000     O
    O   1.0     0.684603     0.447105     0.017276  Biso 1.000000     O
    O   1.0     0.684609     0.947124     0.017279  Biso 1.000000     O
    O   1.0     0.144444     0.194515     0.058520  Biso 1.000000     O
    O   1.0     0.144448     0.694533     0.058522  Biso 1.000000     O
    O   1.0     0.644431     0.194514     0.058523  Biso 1.000000     O
    O   1.0     0.644437     0.694533     0.058524  Biso 1.000000     O
    O   1.0     0.204086     0.107590     0.208379  Biso 1.000000     O
    O   1.0     0.204087     0.607609     0.208382  Biso 1.000000     O
    O   1.0     0.704084     0.107591     0.208376  Biso 1.000000     O
    O   1.0     0.704083     0.607610     0.208381  Biso 1.000000     O
    O   1.0     0.044038     0.253360     0.842222  Biso 1.000000     O
    O   1.0     0.044043     0.753382     0.842223  Biso 1.000000     O
    O   1.0     0.544030     0.253361     0.842222  Biso 1.000000     O
    O   1.0     0.544033     0.753383     0.842222  Biso 1.000000     O
    O   1.0     0.110775     0.133954     0.882956  Biso 1.000000     O
    O   1.0     0.110779     0.633975     0.882958  Biso 1.000000     O
    O   1.0     0.610768     0.133956     0.882957  Biso 1.000000     O
    O   1.0     0.610774     0.633977     0.882959  Biso 1.000000     O
   Cd   1.0     0.322717     0.420380     0.953182  Biso 1.000000    Cd
   Cd   1.0     0.322722     0.920393     0.953191  Biso 1.000000    Cd
   Cd   1.0     0.822715     0.420381     0.953182  Biso 1.000000    Cd
   Cd   1.0     0.822718     0.920393     0.953189  Biso 1.000000    Cd
   Cd   1.0     0.177292     0.079679     0.046738  Biso 1.000000    Cd
   Cd   1.0     0.177295     0.579691     0.046747  Biso 1.000000    Cd
   Cd   1.0     0.677288     0.079679     0.046738  Biso 1.000000    Cd
   Cd   1.0     0.677292     0.579691     0.046747  Biso 1.000000    Cd
   Cd   1.0     0.000012     0.250017    -0.000036  Biso 1.000000    Cd
   Cd   1.0     0.000017     0.750039    -0.000035  Biso 1.000000    Cd
   Cd   1.0     0.499999     0.250018    -0.000036  Biso 1.000000    Cd
   Cd   1.0     0.500006     0.750040    -0.000036  Biso 1.000000    Cd
