#======================================================================

# CRYSTAL DATA

#----------------------------------------------------------------------

data_VESTA_phase_1


_pd_phase_name                         MOF
_cell_length_a                         15.55400
_cell_length_b                         20.35600
_cell_length_c                         13.43000
_cell_angle_alpha                      68.03000
_cell_angle_beta                       85.13900
_cell_angle_gamma                      75.68300
_symmetry_space_group_name_H-M         "P 1"
_symmetry_Int_Tables_number            1

loop_
_symmetry_equiv_pos_as_xyz
   "x, y, z"

loop_
   _atom_site_label
   _atom_site_occupancy
   _atom_site_fract_x
   _atom_site_fract_y
   _atom_site_fract_z
   _atom_site_adp_type
   _atom_site_B_iso_or_equiv
   _atom_site_type_symbol
    H   1.0     0.424285     0.067485     0.551315  Biso 1.000000     H
    H   1.0     0.424282     0.567477     0.551313  Biso 1.000000     H
    H   1.0     0.924310     0.067486     0.551315  Biso 1.000000     H
    H   1.0     0.924308     0.567478     0.551313  Biso 1.000000     H
    H   1.0     0.389737     0.128940     0.827103  Biso 1.000000     H
    H   1.0     0.389736     0.628929     0.827104  Biso 1.000000     H
    H   1.0     0.889760     0.128940     0.827103  Biso 1.000000     H
    H   1.0     0.889760     0.628929     0.827104  Biso 1.000000     H
    H   1.0     0.408053     0.405611     0.864169  Biso 1.000000     H
    H   1.0     0.408053     0.905599     0.864172  Biso 1.000000     H
    H   1.0     0.908080     0.405611     0.864168  Biso 1.000000     H
    H   1.0     0.908080     0.905598     0.864173  Biso 1.000000     H
    H   1.0     0.301716     0.105071     0.958714  Biso 1.000000     H
    H   1.0     0.301720     0.605063     0.958718  Biso 1.000000     H
    H   1.0     0.801742     0.105071     0.958714  Biso 1.000000     H
    H   1.0     0.801747     0.605064     0.958717  Biso 1.000000     H
    H   1.0     0.277740     0.078034     0.153038  Biso 1.000000     H
    H   1.0     0.277742     0.578022     0.153042  Biso 1.000000     H
    H   1.0     0.777766     0.078034     0.153038  Biso 1.000000     H
    H   1.0     0.777770     0.578023     0.153040  Biso 1.000000     H
    H   1.0     0.422013     0.356597     0.222022  Biso 1.000000     H
    H   1.0     0.422017     0.856592     0.222026  Biso 1.000000     H
    H   1.0     0.922037     0.356597     0.222021  Biso 1.000000     H
    H   1.0     0.922042     0.856592     0.222026  Biso 1.000000     H
    H   1.0     0.452554     0.384095     0.028473  Biso 1.000000     H
    H   1.0     0.452557     0.884088     0.028477  Biso 1.000000     H
    H   1.0     0.952580     0.384095     0.028473  Biso 1.000000     H
    H   1.0     0.952584     0.884088     0.028477  Biso 1.000000     H
    H   1.0     0.075727     0.432508     0.448689  Biso 1.000000     H
    H   1.0     0.075725     0.932500     0.448688  Biso 1.000000     H
    H   1.0     0.575753     0.432508     0.448689  Biso 1.000000     H
    H   1.0     0.575749     0.932500     0.448688  Biso 1.000000     H
    H   1.0     0.110274     0.371047     0.172907  Biso 1.000000     H
    H   1.0     0.110275     0.871036     0.172908  Biso 1.000000     H
    H   1.0     0.610299     0.371047     0.172908  Biso 1.000000     H
    H   1.0     0.610297     0.871036     0.172909  Biso 1.000000     H
    H   1.0     0.091953     0.094381     0.135825  Biso 1.000000     H
    H   1.0     0.091953     0.594368     0.135829  Biso 1.000000     H
    H   1.0     0.591980     0.094380     0.135825  Biso 1.000000     H
    H   1.0     0.591980     0.594368     0.135828  Biso 1.000000     H
    H   1.0     0.198284     0.394912     0.041288  Biso 1.000000     H
    H   1.0     0.198290     0.894905     0.041291  Biso 1.000000     H
    H   1.0     0.698312     0.394912     0.041288  Biso 1.000000     H
    H   1.0     0.698316     0.894904     0.041292  Biso 1.000000     H
    H   1.0     0.222260     0.421952     0.846964  Biso 1.000000     H
    H   1.0     0.222265     0.921941     0.846968  Biso 1.000000     H
    H   1.0     0.722288     0.421952     0.846963  Biso 1.000000     H
    H   1.0     0.722291     0.921940     0.846968  Biso 1.000000     H
    H   1.0     0.077993     0.143385     0.777978  Biso 1.000000     H
    H   1.0     0.077998     0.643379     0.777983  Biso 1.000000     H
    H   1.0     0.578018     0.143384     0.777978  Biso 1.000000     H
    H   1.0     0.578022     0.643379     0.777983  Biso 1.000000     H
    H   1.0     0.047452     0.115889     0.971526  Biso 1.000000     H
    H   1.0     0.047456     0.615882     0.971531  Biso 1.000000     H
    H   1.0     0.547479     0.115889     0.971527  Biso 1.000000     H
    H   1.0     0.547482     0.615881     0.971531  Biso 1.000000     H
    C   1.0     0.417004     0.480952     0.703934  Biso 1.000000     C
    C   1.0     0.417000     0.980940     0.703937  Biso 1.000000     C
    C   1.0     0.917032     0.480953     0.703934  Biso 1.000000     C
    C   1.0     0.917026     0.980940     0.703937  Biso 1.000000     C
    C   1.0     0.416674     0.052906     0.637672  Biso 1.000000     C
    C   1.0     0.416670     0.552898     0.637671  Biso 1.000000     C
    C   1.0     0.916699     0.052907     0.637673  Biso 1.000000     C
    C   1.0     0.916696     0.552898     0.637670  Biso 1.000000     C
    C   1.0     0.407693     0.105657     0.683431  Biso 1.000000     C
    C   1.0     0.407690     0.605648     0.683432  Biso 1.000000     C
    C   1.0     0.907715     0.105658     0.683432  Biso 1.000000     C
    C   1.0     0.907714     0.605648     0.683432  Biso 1.000000     C
    C   1.0     0.396384     0.086523     0.794331  Biso 1.000000     C
    C   1.0     0.396380     0.586512     0.794332  Biso 1.000000     C
    C   1.0     0.896407     0.086523     0.794332  Biso 1.000000     C
    C   1.0     0.896406     0.586512     0.794332  Biso 1.000000     C
    C   1.0     0.395701     0.014830     0.862063  Biso 1.000000     C
    C   1.0     0.395694     0.514820     0.862062  Biso 1.000000     C
    C   1.0     0.895728     0.014830     0.862063  Biso 1.000000     C
    C   1.0     0.895722     0.514820     0.862062  Biso 1.000000     C
    C   1.0     0.408233     0.461994     0.815259  Biso 1.000000     C
    C   1.0     0.408229     0.961983     0.815262  Biso 1.000000     C
    C   1.0     0.908260     0.461995     0.815258  Biso 1.000000     C
    C   1.0     0.908256     0.961983     0.815262  Biso 1.000000     C
    C   1.0     0.380166     0.496994     0.978526  Biso 1.000000     C
    C   1.0     0.380159     0.996983     0.978526  Biso 1.000000     C
    C   1.0     0.880192     0.496993     0.978526  Biso 1.000000     C
    C   1.0     0.880185     0.996982     0.978527  Biso 1.000000     C
    C   1.0     0.330627     0.050963     0.015984  Biso 1.000000     C
    C   1.0     0.330624     0.550953     0.015986  Biso 1.000000     C
    C   1.0     0.830653     0.050963     0.015984  Biso 1.000000     C
    C   1.0     0.830652     0.550953     0.015985  Biso 1.000000     C
    C   1.0     0.315736     0.035882     0.124804  Biso 1.000000     C
    C   1.0     0.315734     0.535870     0.124807  Biso 1.000000     C
    C   1.0     0.815762     0.035882     0.124804  Biso 1.000000     C
    C   1.0     0.815761     0.535870     0.124806  Biso 1.000000     C
    C   1.0     0.348482     0.465737     0.200123  Biso 1.000000     C
    C   1.0     0.348477     0.965731     0.200123  Biso 1.000000     C
    C   1.0     0.848506     0.465738     0.200122  Biso 1.000000     C
    C   1.0     0.848502     0.965731     0.200123  Biso 1.000000     C
    C   1.0     0.396557     0.411114     0.163766  Biso 1.000000     C
    C   1.0     0.396558     0.911107     0.163769  Biso 1.000000     C
    C   1.0     0.896582     0.411114     0.163766  Biso 1.000000     C
    C   1.0     0.896583     0.911107     0.163770  Biso 1.000000     C
    C   1.0     0.412670     0.426776     0.054658  Biso 1.000000     C
    C   1.0     0.412671     0.926768     0.054662  Biso 1.000000     C
    C   1.0     0.912696     0.426776     0.054658  Biso 1.000000     C
    C   1.0     0.912697     0.926768     0.054662  Biso 1.000000     C
    C   1.0     0.424224     0.424293     0.656544  Biso 1.000000     C
    C   1.0     0.424222     0.924281     0.656545  Biso 1.000000     C
    C   1.0     0.924246     0.424294     0.656543  Biso 1.000000     C
    C   1.0     0.924243     0.924282     0.656544  Biso 1.000000     C
    C   1.0     0.411882     0.182088     0.615717  Biso 1.000000     C
    C   1.0     0.411879     0.682079     0.615720  Biso 1.000000     C
    C   1.0     0.911899     0.182090     0.615719  Biso 1.000000     C
    C   1.0     0.911896     0.682081     0.615720  Biso 1.000000     C
    C   1.0     0.332319     0.450288     0.317146  Biso 1.000000     C
    C   1.0     0.332319     0.950282     0.317146  Biso 1.000000     C
    C   1.0     0.832342     0.450289     0.317144  Biso 1.000000     C
    C   1.0     0.832341     0.950283     0.317145  Biso 1.000000     C
    C   1.0     0.083006     0.019042     0.296062  Biso 1.000000     C
    C   1.0     0.083002     0.519030     0.296065  Biso 1.000000     C
    C   1.0     0.583032     0.019042     0.296062  Biso 1.000000     C
    C   1.0     0.583029     0.519030     0.296065  Biso 1.000000     C
    C   1.0     0.083339     0.447085     0.362333  Biso 1.000000     C
    C   1.0     0.083337     0.947077     0.362331  Biso 1.000000     C
    C   1.0     0.583365     0.447085     0.362332  Biso 1.000000     C
    C   1.0     0.583361     0.947077     0.362331  Biso 1.000000     C
    C   1.0     0.092322     0.394333     0.316575  Biso 1.000000     C
    C   1.0     0.092321     0.894323     0.316576  Biso 1.000000     C
    C   1.0     0.592347     0.394333     0.316576  Biso 1.000000     C
    C   1.0     0.592343     0.894323     0.316577  Biso 1.000000     C
    C   1.0     0.103630     0.413466     0.205676  Biso 1.000000     C
    C   1.0     0.103628     0.913455     0.205676  Biso 1.000000     C
    C   1.0     0.603654     0.413465     0.205676  Biso 1.000000     C
    C   1.0     0.603652     0.913454     0.205678  Biso 1.000000     C
    C   1.0     0.104313     0.485157     0.137942  Biso 1.000000     C
    C   1.0     0.104307     0.985147     0.137941  Biso 1.000000     C
    C   1.0     0.604340     0.485156     0.137942  Biso 1.000000     C
    C   1.0     0.604333     0.985146     0.137942  Biso 1.000000     C
    C   1.0     0.091778     0.037997     0.184738  Biso 1.000000     C
    C   1.0     0.091774     0.537985     0.184741  Biso 1.000000     C
    C   1.0     0.591804     0.037996     0.184738  Biso 1.000000     C
    C   1.0     0.591801     0.537984     0.184741  Biso 1.000000     C
    C   1.0     0.119849     0.002994     0.021478  Biso 1.000000     C
    C   1.0     0.119841     0.502983     0.021478  Biso 1.000000     C
    C   1.0     0.619875     0.002993     0.021478  Biso 1.000000     C
    C   1.0     0.619868     0.502983     0.021478  Biso 1.000000     C
    C   1.0     0.169380     0.449023     0.984019  Biso 1.000000     C
    C   1.0     0.169380     0.949013     0.984021  Biso 1.000000     C
    C   1.0     0.669408     0.449022     0.984018  Biso 1.000000     C
    C   1.0     0.669406     0.949012     0.984021  Biso 1.000000     C
    C   1.0     0.184270     0.464105     0.875199  Biso 1.000000     C
    C   1.0     0.184270     0.964093     0.875201  Biso 1.000000     C
    C   1.0     0.684297     0.464105     0.875198  Biso 1.000000     C
    C   1.0     0.684295     0.964093     0.875201  Biso 1.000000     C
    C   1.0     0.151529     0.034244     0.799881  Biso 1.000000     C
    C   1.0     0.151524     0.534237     0.799881  Biso 1.000000     C
    C   1.0     0.651554     0.034243     0.799881  Biso 1.000000     C
    C   1.0     0.651549     0.534237     0.799880  Biso 1.000000     C
    C   1.0     0.103451     0.088869     0.836234  Biso 1.000000     C
    C   1.0     0.103452     0.588862     0.836237  Biso 1.000000     C
    C   1.0     0.603476     0.088868     0.836235  Biso 1.000000     C
    C   1.0     0.603476     0.588861     0.836237  Biso 1.000000     C
    C   1.0     0.087339     0.073208     0.945341  Biso 1.000000     C
    C   1.0     0.087339     0.573201     0.945345  Biso 1.000000     C
    C   1.0     0.587364     0.073208     0.945342  Biso 1.000000     C
    C   1.0     0.587365     0.573200     0.945346  Biso 1.000000     C
    C   1.0     0.075780     0.075705     0.343447  Biso 1.000000     C
    C   1.0     0.075777     0.575694     0.343448  Biso 1.000000     C
    C   1.0     0.575801     0.075706     0.343447  Biso 1.000000     C
    C   1.0     0.575799     0.575694     0.343447  Biso 1.000000     C
    C   1.0     0.088135     0.317903     0.384296  Biso 1.000000     C
    C   1.0     0.088133     0.817894     0.384298  Biso 1.000000     C
    C   1.0     0.588153     0.317904     0.384297  Biso 1.000000     C
    C   1.0     0.588150     0.817895     0.384300  Biso 1.000000     C
    C   1.0     0.167683     0.049688     0.682859  Biso 1.000000     C
    C   1.0     0.167683     0.549683     0.682859  Biso 1.000000     C
    C   1.0     0.667705     0.049689     0.682858  Biso 1.000000     C
    C   1.0     0.667704     0.549684     0.682857  Biso 1.000000     C
    O   1.0     0.455842     0.358218     0.708072  Biso 1.000000     O
    O   1.0     0.455836     0.858206     0.708073  Biso 1.000000     O
    O   1.0     0.955858     0.358219     0.708072  Biso 1.000000     O
    O   1.0     0.955853     0.858207     0.708073  Biso 1.000000     O
    O   1.0     0.396291     0.446344     0.556829  Biso 1.000000     O
    O   1.0     0.396284     0.946333     0.556831  Biso 1.000000     O
    O   1.0     0.896312     0.446347     0.556827  Biso 1.000000     O
    O   1.0     0.896306     0.946336     0.556830  Biso 1.000000     O
    O   1.0     0.434418     0.198425     0.517033  Biso 1.000000     O
    O   1.0     0.434416     0.698419     0.517036  Biso 1.000000     O
    O   1.0     0.934428     0.198430     0.517032  Biso 1.000000     O
    O   1.0     0.934429     0.698424     0.517035  Biso 1.000000     O
    O   1.0     0.392292     0.229474     0.660139  Biso 1.000000     O
    O   1.0     0.392288     0.729464     0.660144  Biso 1.000000     O
    O   1.0     0.892308     0.229475     0.660143  Biso 1.000000     O
    O   1.0     0.892307     0.729464     0.660147  Biso 1.000000     O
    O   1.0     0.289884     0.505650     0.340476  Biso 1.000000     O
    O   1.0     0.289880     0.000000     0.340475  Biso 1.000000     O
    O   1.0     0.789912     0.505654     0.340472  Biso 1.000000     O
    O   1.0     0.789908     0.000000     0.340472  Biso 1.000000     O
    O   1.0     0.359181     0.385870     0.383552  Biso 1.000000     O
    O   1.0     0.359174     0.885863     0.383552  Biso 1.000000     O
    O   1.0     0.859195     0.385870     0.383552  Biso 1.000000     O
    O   1.0     0.859189     0.885864     0.383553  Biso 1.000000     O
    O   1.0     0.044163     0.141778     0.291912  Biso 1.000000     O
    O   1.0     0.044158     0.641766     0.291914  Biso 1.000000     O
    O   1.0     0.544180     0.141778     0.291912  Biso 1.000000     O
    O   1.0     0.544174     0.641766     0.291914  Biso 1.000000     O
    O   1.0     0.103717     0.053657     0.443161  Biso 1.000000     O
    O   1.0     0.103712     0.553647     0.443163  Biso 1.000000     O
    O   1.0     0.603739     0.053660     0.443160  Biso 1.000000     O
    O   1.0     0.603733     0.553649     0.443162  Biso 1.000000     O
    O   1.0     0.065607     0.301567     0.482981  Biso 1.000000     O
    O   1.0     0.065608     0.801560     0.482984  Biso 1.000000     O
    O   1.0     0.565620     0.301571     0.482980  Biso 1.000000     O
    O   1.0     0.565619     0.801565     0.482983  Biso 1.000000     O
    O   1.0     0.107718     0.270516     0.339874  Biso 1.000000     O
    O   1.0     0.107716     0.770506     0.339879  Biso 1.000000     O
    O   1.0     0.607735     0.270516     0.339877  Biso 1.000000     O
    O   1.0     0.607732     0.770506     0.339882  Biso 1.000000     O
    O   1.0     0.210111    -0.005678     0.659534  Biso 1.000000     O
    O   1.0     0.210110     0.494317     0.659533  Biso 1.000000     O
    O   1.0     0.710139    -0.005676     0.659532  Biso 1.000000     O
    O   1.0     0.710138     0.494321     0.659529  Biso 1.000000     O
    O   1.0     0.140833     0.114106     0.616447  Biso 1.000000     O
    O   1.0     0.140826     0.614101     0.616448  Biso 1.000000     O
    O   1.0     0.640848     0.114106     0.616448  Biso 1.000000     O
    O   1.0     0.640841     0.614101     0.616449  Biso 1.000000     O
   Cd   1.0     0.429083     0.330304     0.547283  Biso 1.000000    Cd
   Cd   1.0     0.429079     0.830294     0.547284  Biso 1.000000    Cd
   Cd   1.0     0.929096     0.330306     0.547285  Biso 1.000000    Cd
   Cd   1.0     0.929095     0.830296     0.547285  Biso 1.000000    Cd
   Cd   1.0     0.070931     0.169685     0.452717  Biso 1.000000    Cd
   Cd   1.0     0.070928     0.669675     0.452718  Biso 1.000000    Cd
   Cd   1.0     0.570946     0.169686     0.452719  Biso 1.000000    Cd
   Cd   1.0     0.570942     0.669676     0.452720  Biso 1.000000    Cd
   Cd   1.0     0.250003    -0.000006     0.500004  Biso 1.000000    Cd
   Cd   1.0     0.249998     0.499986     0.500004  Biso 1.000000    Cd
   Cd   1.0     0.750025    -0.000003     0.500000  Biso 1.000000    Cd
   Cd   1.0     0.750021     0.499990     0.499998  Biso 1.000000    Cd
