#======================================================================

# CRYSTAL DATA

#----------------------------------------------------------------------

data_VESTA_phase_1


_pd_phase_name                         MOF
_cell_length_a                         20.47200
_cell_length_b                         12.63100
_cell_length_c                         15.38600
_cell_angle_alpha                      90.01100
_cell_angle_beta                       90.00200
_cell_angle_gamma                      90.01200
_symmetry_space_group_name_H-M         "P 1"
_symmetry_Int_Tables_number            1

loop_
_symmetry_equiv_pos_as_xyz
   "x, y, z"

loop_
   _atom_site_label
   _atom_site_occupancy
   _atom_site_fract_x
   _atom_site_fract_y
   _atom_site_fract_z
   _atom_site_adp_type
   _atom_site_B_iso_or_equiv
   _atom_site_type_symbol
    H   1.0     0.188130     0.758189     0.067062  Biso 1.000000     H
    H   1.0     0.688135     0.758192     0.067067  Biso 1.000000     H
    H   1.0     0.327144     0.782389     0.867365  Biso 1.000000     H
    H   1.0     0.827148     0.782390     0.867367  Biso 1.000000     H
    H   1.0     0.260087     0.493503     0.890070  Biso 1.000000     H
    H   1.0     0.760086     0.493505     0.890071  Biso 1.000000     H
    H   1.0     0.218617     0.473067     0.730645  Biso 1.000000     H
    H   1.0     0.718619     0.473068     0.730646  Biso 1.000000     H
    H   1.0     0.365822     0.652625     0.610317  Biso 1.000000     H
    H   1.0     0.865821     0.652633     0.610319  Biso 1.000000     H
    H   1.0     0.061883     0.241877     0.567068  Biso 1.000000     H
    H   1.0     0.561884     0.241876     0.567056  Biso 1.000000     H
    H   1.0     0.422874     0.217588     0.367367  Biso 1.000000     H
    H   1.0     0.922876     0.217592     0.367366  Biso 1.000000     H
    H   1.0     0.489907     0.506494     0.390127  Biso 1.000000     H
    H   1.0     0.989908     0.506498     0.390133  Biso 1.000000     H
    H   1.0     0.031321     0.526994     0.230718  Biso 1.000000     H
    H   1.0     0.531314     0.526983     0.230710  Biso 1.000000     H
    H   1.0     0.384128     0.347335     0.110355  Biso 1.000000     H
    H   1.0     0.884129     0.347340     0.110360  Biso 1.000000     H
    H   1.0     0.311860     0.258222     0.432899  Biso 1.000000     H
    H   1.0     0.811865     0.258224     0.432903  Biso 1.000000     H
    H   1.0     0.172844     0.282398     0.632567  Biso 1.000000     H
    H   1.0     0.672844     0.282398     0.632565  Biso 1.000000     H
    H   1.0     0.239902     0.993555     0.609831  Biso 1.000000     H
    H   1.0     0.739903     0.993554     0.609828  Biso 1.000000     H
    H   1.0     0.281367     0.973086     0.769234  Biso 1.000000     H
    H   1.0     0.781369     0.973086     0.769232  Biso 1.000000     H
    H   1.0     0.134185     0.152537     0.889664  Biso 1.000000     H
    H   1.0     0.634191     0.152541     0.889663  Biso 1.000000     H
    H   1.0     0.438118     0.741709     0.932880  Biso 1.000000     H
    H   1.0     0.938117     0.741712     0.932878  Biso 1.000000     H
    H   1.0     0.077123     0.717612     0.132617  Biso 1.000000     H
    H   1.0     0.577124     0.717610     0.132608  Biso 1.000000     H
    H   1.0     0.010103     0.006462     0.109870  Biso 1.000000     H
    H   1.0     0.510103     0.006460     0.109863  Biso 1.000000     H
    H   1.0     0.468710     0.026994     0.269288  Biso 1.000000     H
    H   1.0     0.968703     0.027000     0.269293  Biso 1.000000     H
    H   1.0     0.115831     0.847348     0.389620  Biso 1.000000     H
    H   1.0     0.615835     0.847354     0.389614  Biso 1.000000     H
    H   1.0     0.311866     0.241846     0.932892  Biso 1.000000     H
    H   1.0     0.811872     0.241849     0.932894  Biso 1.000000     H
    H   1.0     0.172857     0.217647     0.132596  Biso 1.000000     H
    H   1.0     0.672858     0.217650     0.132594  Biso 1.000000     H
    H   1.0     0.239910     0.506532     0.109888  Biso 1.000000     H
    H   1.0     0.739909     0.506535     0.109885  Biso 1.000000     H
    H   1.0     0.281381     0.526973     0.269315  Biso 1.000000     H
    H   1.0     0.781384     0.526978     0.269313  Biso 1.000000     H
    H   1.0     0.134180     0.347406     0.389641  Biso 1.000000     H
    H   1.0     0.634188     0.347401     0.389641  Biso 1.000000     H
    H   1.0     0.438121     0.758159     0.432898  Biso 1.000000     H
    H   1.0     0.938115     0.758161     0.432905  Biso 1.000000     H
    H   1.0     0.077126     0.782447     0.632601  Biso 1.000000     H
    H   1.0     0.577126     0.782447     0.632593  Biso 1.000000     H
    H   1.0     0.010088     0.493541     0.609838  Biso 1.000000     H
    H   1.0     0.510089     0.493542     0.609833  Biso 1.000000     H
    H   1.0     0.468688     0.473048     0.769247  Biso 1.000000     H
    H   1.0     0.968681     0.473047     0.769251  Biso 1.000000     H
    H   1.0     0.115875     0.652698     0.889609  Biso 1.000000     H
    H   1.0     0.615871     0.652701     0.889603  Biso 1.000000     H
    H   1.0     0.188138     0.741812     0.567061  Biso 1.000000     H
    H   1.0     0.688139     0.741813     0.567061  Biso 1.000000     H
    H   1.0     0.327156     0.717637     0.367394  Biso 1.000000     H
    H   1.0     0.827159     0.717642     0.367397  Biso 1.000000     H
    H   1.0     0.260097     0.006480     0.390129  Biso 1.000000     H
    H   1.0     0.760097     0.006482     0.390130  Biso 1.000000     H
    H   1.0     0.218633     0.026950     0.230726  Biso 1.000000     H
    H   1.0     0.718634     0.026955     0.230728  Biso 1.000000     H
    H   1.0     0.365816     0.847503     0.110295  Biso 1.000000     H
    H   1.0     0.865817     0.847508     0.110296  Biso 1.000000     H
    H   1.0     0.061882     0.258323     0.067095  Biso 1.000000     H
    H   1.0     0.561889     0.258323     0.067072  Biso 1.000000     H
    H   1.0     0.422877     0.282425     0.867351  Biso 1.000000     H
    H   1.0     0.922881     0.282426     0.867350  Biso 1.000000     H
    H   1.0     0.489895     0.993573     0.890095  Biso 1.000000     H
    H   1.0     0.989896     0.993575     0.890101  Biso 1.000000     H
    H   1.0     0.031296     0.973032     0.730676  Biso 1.000000     H
    H   1.0     0.531292     0.973042     0.730671  Biso 1.000000     H
    H   1.0     0.384170     0.152685     0.610344  Biso 1.000000     H
    H   1.0     0.884179     0.152709     0.610352  Biso 1.000000     H
    C   1.0     0.221335     0.737290     0.015023  Biso 1.000000     C
    C   1.0     0.721340     0.737291     0.015028  Biso 1.000000     C
    C   1.0     0.291960     0.751791     0.913621  Biso 1.000000     C
    C   1.0     0.791964     0.751792     0.913623  Biso 1.000000     C
    C   1.0     0.295698     0.555601     0.874758  Biso 1.000000     C
    C   1.0     0.795698     0.555603     0.874759  Biso 1.000000     C
    C   1.0     0.364503     0.511079     0.902278  Biso 1.000000     C
    C   1.0     0.864502     0.511080     0.902279  Biso 1.000000     C
    C   1.0     0.260715     0.523561     0.719437  Biso 1.000000     C
    C   1.0     0.760717     0.523561     0.719438  Biso 1.000000     C
    C   1.0     0.335516     0.616770     0.660095  Biso 1.000000     C
    C   1.0     0.835515     0.616777     0.660096  Biso 1.000000     C
    C   1.0     0.028682     0.262753     0.515023  Biso 1.000000     C
    C   1.0     0.528678     0.262753     0.515015  Biso 1.000000     C
    C   1.0     0.458057     0.248200     0.413630  Biso 1.000000     C
    C   1.0     0.958058     0.248202     0.413631  Biso 1.000000     C
    C   1.0     0.454297     0.444388     0.374808  Biso 1.000000     C
    C   1.0     0.954299     0.444392     0.374814  Biso 1.000000     C
    C   1.0     0.385494     0.488910     0.402345  Biso 1.000000     C
    C   1.0     0.885495     0.488914     0.402349  Biso 1.000000     C
    C   1.0     0.489233     0.476452     0.219487  Biso 1.000000     C
    C   1.0     0.989232     0.476460     0.219493  Biso 1.000000     C
    C   1.0     0.414441     0.383209     0.160131  Biso 1.000000     C
    C   1.0     0.914442     0.383215     0.160136  Biso 1.000000     C
    C   1.0     0.278661     0.237315     0.484942  Biso 1.000000     C
    C   1.0     0.778665     0.237317     0.484944  Biso 1.000000     C
    C   1.0     0.208033     0.251812     0.586314  Biso 1.000000     C
    C   1.0     0.708034     0.251812     0.586312  Biso 1.000000     C
    C   1.0     0.204307     0.055638     0.625170  Biso 1.000000     C
    C   1.0     0.704308     0.055636     0.625167  Biso 1.000000     C
    C   1.0     0.135490     0.011100     0.597651  Biso 1.000000     C
    C   1.0     0.635488     0.011103     0.597651  Biso 1.000000     C
    C   1.0     0.239284     0.023564     0.780473  Biso 1.000000     C
    C   1.0     0.739285     0.023563     0.780471  Biso 1.000000     C
    C   1.0     0.164492     0.116718     0.839867  Biso 1.000000     C
    C   1.0     0.664498     0.116723     0.839866  Biso 1.000000     C
    C   1.0     0.471320     0.762642     0.984922  Biso 1.000000     C
    C   1.0     0.971315     0.762644     0.984925  Biso 1.000000     C
    C   1.0     0.041943     0.748187     0.086352  Biso 1.000000     C
    C   1.0     0.541944     0.748186     0.086344  Biso 1.000000     C
    C   1.0     0.045705     0.944385     0.125181  Biso 1.000000     C
    C   1.0     0.545705     0.944383     0.125176  Biso 1.000000     C
    C   1.0     0.114511     0.988926     0.097650  Biso 1.000000     C
    C   1.0     0.614511     0.988924     0.097647  Biso 1.000000     C
    C   1.0     0.010773     0.976469     0.280507  Biso 1.000000     C
    C   1.0     0.510773     0.976467     0.280502  Biso 1.000000     C
    C   1.0     0.085535     0.883225     0.339848  Biso 1.000000     C
    C   1.0     0.585537     0.883228     0.339843  Biso 1.000000     C
    C   1.0     0.278662     0.262745     0.984932  Biso 1.000000     C
    C   1.0     0.778667     0.262748     0.984933  Biso 1.000000     C
    C   1.0     0.208039     0.248244     0.086337  Biso 1.000000     C
    C   1.0     0.708042     0.248247     0.086337  Biso 1.000000     C
    C   1.0     0.204302     0.444431     0.125202  Biso 1.000000     C
    C   1.0     0.704302     0.444432     0.125202  Biso 1.000000     C
    C   1.0     0.135493     0.488942     0.097685  Biso 1.000000     C
    C   1.0     0.635491     0.488940     0.097687  Biso 1.000000     C
    C   1.0     0.239285     0.476476     0.280523  Biso 1.000000     C
    C   1.0     0.739288     0.476481     0.280522  Biso 1.000000     C
    C   1.0     0.164485     0.383262     0.339863  Biso 1.000000     C
    C   1.0     0.664492     0.383260     0.339863  Biso 1.000000     C
    C   1.0     0.471326     0.737282     0.484941  Biso 1.000000     C
    C   1.0     0.971319     0.737284     0.484948  Biso 1.000000     C
    C   1.0     0.041943     0.751836     0.586337  Biso 1.000000     C
    C   1.0     0.541944     0.751834     0.586329  Biso 1.000000     C
    C   1.0     0.045700     0.555642     0.625154  Biso 1.000000     C
    C   1.0     0.545700     0.555645     0.625151  Biso 1.000000     C
    C   1.0     0.114500     0.511108     0.597616  Biso 1.000000     C
    C   1.0     0.614500     0.511110     0.597615  Biso 1.000000     C
    C   1.0     0.010770     0.523581     0.780476  Biso 1.000000     C
    C   1.0     0.510767     0.523581     0.780472  Biso 1.000000     C
    C   1.0     0.085561     0.616825     0.839833  Biso 1.000000     C
    C   1.0     0.585559     0.616825     0.839828  Biso 1.000000     C
    C   1.0     0.221338     0.762718     0.515019  Biso 1.000000     C
    C   1.0     0.721339     0.762719     0.515018  Biso 1.000000     C
    C   1.0     0.291965     0.748221     0.413645  Biso 1.000000     C
    C   1.0     0.791966     0.748224     0.413646  Biso 1.000000     C
    C   1.0     0.295690     0.944394     0.374790  Biso 1.000000     C
    C   1.0     0.795690     0.944397     0.374791  Biso 1.000000     C
    C   1.0     0.364508     0.988923     0.402312  Biso 1.000000     C
    C   1.0     0.864507     0.988925     0.402314  Biso 1.000000     C
    C   1.0     0.260715     0.976470     0.219486  Biso 1.000000     C
    C   1.0     0.760716     0.976475     0.219487  Biso 1.000000     C
    C   1.0     0.335508     0.883319     0.160092  Biso 1.000000     C
    C   1.0     0.835509     0.883325     0.160093  Biso 1.000000     C
    C   1.0     0.028685     0.237390     0.015046  Biso 1.000000     C
    C   1.0     0.528685     0.237388     0.015032  Biso 1.000000     C
    C   1.0     0.458056     0.251845     0.913615  Biso 1.000000     C
    C   1.0     0.958056     0.251847     0.913619  Biso 1.000000     C
    C   1.0     0.454292     0.055647     0.874783  Biso 1.000000     C
    C   1.0     0.954293     0.055649     0.874789  Biso 1.000000     C
    C   1.0     0.385485     0.011100     0.902312  Biso 1.000000     C
    C   1.0     0.885486     0.011099     0.902314  Biso 1.000000     C
    C   1.0     0.489228     0.023566     0.719457  Biso 1.000000     C
    C   1.0     0.989227     0.023566     0.719463  Biso 1.000000     C
    C   1.0     0.414467     0.116811     0.660116  Biso 1.000000     C
    C   1.0     0.914472     0.116825     0.660123  Biso 1.000000     C
    N   1.0     0.273505     0.649567     0.921173  Biso 1.000000     N
    N   1.0     0.773506     0.649569     0.921174  Biso 1.000000     N
    N   1.0     0.228213     0.638679     0.986438  Biso 1.000000     N
    N   1.0     0.728217     0.638681     0.986442  Biso 1.000000     N
    N   1.0     0.259159     0.809638     0.971920  Biso 1.000000     N
    N   1.0     0.759164     0.809640     0.971925  Biso 1.000000     N
    N   1.0     0.296042     0.572954     0.781469  Biso 1.000000     N
    N   1.0     0.796043     0.572956     0.781471  Biso 1.000000     N
    N   1.0     0.344857     0.632588     0.744374  Biso 1.000000     N
    N   1.0     0.844855     0.632596     0.744375  Biso 1.000000     N
    N   1.0     0.284510     0.550094     0.641726  Biso 1.000000     N
    N   1.0     0.784512     0.550097     0.641726  Biso 1.000000     N
    N   1.0     0.476500     0.350432     0.421199  Biso 1.000000     N
    N   1.0     0.976499     0.350435     0.421205  Biso 1.000000     N
    N   1.0     0.021790     0.361350     0.486486  Biso 1.000000     N
    N   1.0     0.521785     0.361348     0.486478  Biso 1.000000     N
    N   1.0     0.490860     0.190374     0.471927  Biso 1.000000     N
    N   1.0     0.990857     0.190374     0.471931  Biso 1.000000     N
    N   1.0     0.453938     0.427026     0.281514  Biso 1.000000     N
    N   1.0     0.953939     0.427029     0.281521  Biso 1.000000     N
    N   1.0     0.405125     0.367372     0.244408  Biso 1.000000     N
    N   1.0     0.905127     0.367377     0.244413  Biso 1.000000     N
    N   1.0     0.465426     0.449921     0.141769  Biso 1.000000     N
    N   1.0     0.965425     0.449930     0.141776  Biso 1.000000     N
    N   1.0     0.226506     0.149604     0.578776  Biso 1.000000     N
    N   1.0     0.726507     0.149604     0.578775  Biso 1.000000     N
    N   1.0     0.271794     0.138721     0.513506  Biso 1.000000     N
    N   1.0     0.771798     0.138722     0.513508  Biso 1.000000     N
    N   1.0     0.240823     0.309657     0.528006  Biso 1.000000     N
    N   1.0     0.740825     0.309658     0.528006  Biso 1.000000     N
    N   1.0     0.203974     0.072986     0.718467  Biso 1.000000     N
    N   1.0     0.703975     0.072984     0.718465  Biso 1.000000     N
    N   1.0     0.155162     0.132581     0.755597  Biso 1.000000     N
    N   1.0     0.655168     0.132586     0.755597  Biso 1.000000     N
    N   1.0     0.215485     0.050046     0.858200  Biso 1.000000     N
    N   1.0     0.715489     0.050047     0.858199  Biso 1.000000     N
    N   1.0     0.023501     0.850401     0.078781  Biso 1.000000     N
    N   1.0     0.523501     0.850399     0.078775  Biso 1.000000     N
    N   1.0     0.478217     0.861261     0.013496  Biso 1.000000     N
    N   1.0     0.978210     0.861264     0.013498  Biso 1.000000     N
    N   1.0     0.009143     0.690318     0.028048  Biso 1.000000     N
    N   1.0     0.509142     0.690317     0.028042  Biso 1.000000     N
    N   1.0     0.046062     0.927040     0.218472  Biso 1.000000     N
    N   1.0     0.546062     0.927041     0.218466  Biso 1.000000     N
    N   1.0     0.094857     0.867393     0.255568  Biso 1.000000     N
    N   1.0     0.594857     0.867394     0.255562  Biso 1.000000     N
    N   1.0     0.034565     0.949937     0.358220  Biso 1.000000     N
    N   1.0     0.534566     0.949937     0.358215  Biso 1.000000     N
    N   1.0     0.226497     0.350467     0.078787  Biso 1.000000     N
    N   1.0     0.726499     0.350471     0.078785  Biso 1.000000     N
    N   1.0     0.271785     0.361356     0.013518  Biso 1.000000     N
    N   1.0     0.771789     0.361359     0.013519  Biso 1.000000     N
    N   1.0     0.240838     0.190397     0.028036  Biso 1.000000     N
    N   1.0     0.740842     0.190400     0.028036  Biso 1.000000     N
    N   1.0     0.203959     0.427081     0.218491  Biso 1.000000     N
    N   1.0     0.703963     0.427084     0.218491  Biso 1.000000     N
    N   1.0     0.155146     0.367442     0.255585  Biso 1.000000     N
    N   1.0     0.655152     0.367440     0.255584  Biso 1.000000     N
    N   1.0     0.215489     0.449942     0.358234  Biso 1.000000     N
    N   1.0     0.715494     0.449943     0.358233  Biso 1.000000     N
    N   1.0     0.023503     0.649603     0.578764  Biso 1.000000     N
    N   1.0     0.523502     0.649602     0.578758  Biso 1.000000     N
    N   1.0     0.478218     0.638686     0.513478  Biso 1.000000     N
    N   1.0     0.978212     0.638687     0.513483  Biso 1.000000     N
    N   1.0     0.009143     0.809664     0.528039  Biso 1.000000     N
    N   1.0     0.509142     0.809661     0.528030  Biso 1.000000     N
    N   1.0     0.046063     0.573010     0.718447  Biso 1.000000     N
    N   1.0     0.546060     0.573010     0.718444  Biso 1.000000     N
    N   1.0     0.094876     0.632661     0.755556  Biso 1.000000     N
    N   1.0     0.594873     0.632662     0.755551  Biso 1.000000     N
    N   1.0     0.034576     0.550111     0.858194  Biso 1.000000     N
    N   1.0     0.534574     0.550111     0.858190  Biso 1.000000     N
    N   1.0     0.273490     0.850428     0.421182  Biso 1.000000     N
    N   1.0     0.773491     0.850430     0.421182  Biso 1.000000     N
    N   1.0     0.228204     0.861312     0.486454  Biso 1.000000     N
    N   1.0     0.728203     0.861313     0.486452  Biso 1.000000     N
    N   1.0     0.259176     0.690376     0.471955  Biso 1.000000     N
    N   1.0     0.759178     0.690378     0.471956  Biso 1.000000     N
    N   1.0     0.296025     0.927049     0.281493  Biso 1.000000     N
    N   1.0     0.796026     0.927053     0.281494  Biso 1.000000     N
    N   1.0     0.344837     0.867456     0.244362  Biso 1.000000     N
    N   1.0     0.844838     0.867462     0.244363  Biso 1.000000     N
    N   1.0     0.284514     0.949991     0.141759  Biso 1.000000     N
    N   1.0     0.784515     0.949996     0.141760  Biso 1.000000     N
    N   1.0     0.476498     0.149631     0.921185  Biso 1.000000     N
    N   1.0     0.976495     0.149632     0.921194  Biso 1.000000     N
    N   1.0     0.021789     0.138770     0.986474  Biso 1.000000     N
    N   1.0     0.521786     0.138769     0.986460  Biso 1.000000     N
    N   1.0     0.490863     0.309713     0.971913  Biso 1.000000     N
    N   1.0     0.990858     0.309716     0.971921  Biso 1.000000     N
    N   1.0     0.453937     0.072991     0.781492  Biso 1.000000     N
    N   1.0     0.953940     0.072997     0.781499  Biso 1.000000     N
    N   1.0     0.405145     0.132645     0.744396  Biso 1.000000     N
    N   1.0     0.905150     0.132657     0.744404  Biso 1.000000     N
    N   1.0     0.465437     0.050101     0.641744  Biso 1.000000     N
    N   1.0     0.965438     0.050106     0.641750  Biso 1.000000     N
    O   1.0     0.391761     0.555419     0.966574  Biso 1.000000     O
    O   1.0     0.891759     0.555418     0.966577  Biso 1.000000     O
    O   1.0     0.383280     0.435651     0.856177  Biso 1.000000     O
    O   1.0     0.883277     0.435651     0.856178  Biso 1.000000     O
    O   1.0     0.358234     0.444571     0.466621  Biso 1.000000     O
    O   1.0     0.858232     0.444570     0.466622  Biso 1.000000     O
    O   1.0     0.366718     0.564343     0.356269  Biso 1.000000     O
    O   1.0     0.866716     0.564343     0.356271  Biso 1.000000     O
    O   1.0     0.108233     0.055434     0.533374  Biso 1.000000     O
    O   1.0     0.608230     0.055435     0.533374  Biso 1.000000     O
    O   1.0     0.116700     0.935691     0.643744  Biso 1.000000     O
    O   1.0     0.616698     0.935693     0.643744  Biso 1.000000     O
    O   1.0     0.141765     0.944578     0.033367  Biso 1.000000     O
    O   1.0     0.641764     0.944579     0.033361  Biso 1.000000     O
    O   1.0     0.133301     0.064351     0.143753  Biso 1.000000     O
    O   1.0     0.633298     0.064354     0.143746  Biso 1.000000     O
    O   1.0     0.108236     0.444594     0.033392  Biso 1.000000     O
    O   1.0     0.608234     0.444595     0.033392  Biso 1.000000     O
    O   1.0     0.116713     0.564371     0.143783  Biso 1.000000     O
    O   1.0     0.616712     0.564371     0.143784  Biso 1.000000     O
    O   1.0     0.141763     0.555444     0.533341  Biso 1.000000     O
    O   1.0     0.641761     0.555442     0.533338  Biso 1.000000     O
    O   1.0     0.133275     0.435680     0.643698  Biso 1.000000     O
    O   1.0     0.633272     0.435677     0.643695  Biso 1.000000     O
    O   1.0     0.391764     0.944581     0.466587  Biso 1.000000     O
    O   1.0     0.891761     0.944583     0.466590  Biso 1.000000     O
    O   1.0     0.383299     0.064333     0.356221  Biso 1.000000     O
    O   1.0     0.883297     0.064337     0.356226  Biso 1.000000     O
    O   1.0     0.358231     0.055436     0.966601  Biso 1.000000     O
    O   1.0     0.858230     0.055437     0.966601  Biso 1.000000     O
    O   1.0     0.366698     0.935673     0.856210  Biso 1.000000     O
    O   1.0     0.866697     0.935676     0.856209  Biso 1.000000     O
   Cd   1.0     0.999997     0.500021     0.000001  Biso 1.000000    Cd
   Cd   1.0     0.500002     0.500018    -0.000004  Biso 1.000000    Cd
   Cd   1.0     0.250000     0.500016     0.499980  Biso 1.000000    Cd
   Cd   1.0     0.750000     0.500018     0.499980  Biso 1.000000    Cd
   Cd   1.0     0.000002     0.000013     0.499984  Biso 1.000000    Cd
   Cd   1.0     0.499999     0.000011     0.499979  Biso 1.000000    Cd
   Cd   1.0     0.250000     0.000014    -0.000004  Biso 1.000000    Cd
   Cd   1.0     0.750001     0.000017    -0.000003  Biso 1.000000    Cd
