#======================================================================

# CRYSTAL DATA

#----------------------------------------------------------------------

data_VESTA_phase_1


_pd_phase_name                         MOF
_cell_length_a                         11.92300
_cell_length_b                         13.62000
_cell_length_c                         16.19600
_cell_angle_alpha                      107.93100
_cell_angle_beta                       109.46200
_cell_angle_gamma                      97.14700
_symmetry_space_group_name_H-M         "P 1"
_symmetry_Int_Tables_number            1

loop_
_symmetry_equiv_pos_as_xyz
   "x, y, z"

loop_
   _atom_site_label
   _atom_site_occupancy
   _atom_site_fract_x
   _atom_site_fract_y
   _atom_site_fract_z
   _atom_site_adp_type
   _atom_site_B_iso_or_equiv
   _atom_site_type_symbol
    H   1.0     0.223247     0.781363     0.171644  Biso 1.000000     H
    H   1.0    -0.085309     0.592604    -0.066185  Biso 1.000000     H
    H   1.0     0.363800     0.720249     0.092978  Biso 1.000000     H
    H   1.0     0.041165     0.523929     0.844553  Biso 1.000000     H
    H   1.0     0.326591     0.644525     0.887729  Biso 1.000000     H
    H   1.0     0.233814     0.513339     0.840217  Biso 1.000000     H
    H   1.0     0.327251     0.209013     0.551852  Biso 1.000000     H
    H   1.0     0.000000     0.965460     0.439129  Biso 1.000000     H
    H   1.0     0.214030     0.348199     0.584193  Biso 1.000000     H
    H   1.0     0.884609     0.093925     0.468865  Biso 1.000000     H
    H   1.0    -0.015360     0.339314     0.627588  Biso 1.000000     H
    H   1.0     0.866443     0.270132     0.515367  Biso 1.000000     H
    H   1.0     0.185360     0.640363     0.246508  Biso 1.000000     H
    H   1.0     0.256376     0.944031     0.443327  Biso 1.000000     H
    H   1.0     0.297967     0.576248     0.370331  Biso 1.000000     H
    H   1.0     0.375929     0.893782     0.574662  Biso 1.000000     H
    H   1.0     0.353764     0.682906     0.600143  Biso 1.000000     H
    H   1.0     0.492908     0.764880     0.617566  Biso 1.000000     H
    H   1.0     0.960541     0.844837     0.122026  Biso 1.000000     H
    H   1.0     0.133205     0.155539     0.179913  Biso 1.000000     H
    H   1.0     0.763436     0.857410     0.012009  Biso 1.000000     H
    H   1.0     0.945600     0.179729     0.068386  Biso 1.000000     H
    H   1.0     0.704140     0.972779     0.889496  Biso 1.000000     H
    H   1.0     0.743653     0.110293     0.956298  Biso 1.000000     H
    H   1.0     0.774795     0.218696     0.826883  Biso 1.000000     H
    H   1.0     0.000000     0.431722     0.000000  Biso 1.000000     H
    H   1.0     0.638405     0.276503     0.910419  Biso 1.000000     H
    H   1.0     0.961683     0.498200     0.144147  Biso 1.000000     H
    H   1.0     0.679023     0.362408     0.110424  Biso 1.000000     H
    H   1.0     0.772452     0.493552     0.159049  Biso 1.000000     H
    H   1.0     0.668532     0.816924     0.378505  Biso 1.000000     H
    H   1.0    -0.079614    -0.034162     0.655206  Biso 1.000000     H
    H   1.0     0.799139     0.696214     0.337921  Biso 1.000000     H
    H   1.0     0.061735     0.851833     0.626493  Biso 1.000000     H
    H   1.0     0.000000     0.670035     0.382101  Biso 1.000000     H
    H   1.0     0.122353     0.741847     0.496868  Biso 1.000000     H
    H   1.0     0.795258     0.349814     0.746655  Biso 1.000000     H
    H   1.0     0.699017     0.047721     0.541739  Biso 1.000000     H
    H   1.0     0.701156     0.426788     0.627438  Biso 1.000000     H
    H   1.0     0.598689     0.111717     0.413426  Biso 1.000000     H
    H   1.0     0.654621     0.332649     0.402352  Biso 1.000000     H
    H   1.0     0.508809     0.252445     0.373855  Biso 1.000000     H
    H   1.0     0.052877     0.170879     0.875466  Biso 1.000000     H
    H   1.0     0.875886     0.859015     0.809953  Biso 1.000000     H
    H   1.0     0.244601     0.157458     0.990698  Biso 1.000000     H
    H   1.0     0.057713     0.833860     0.926362  Biso 1.000000     H
    H   1.0     0.297040     0.040878     0.111317  Biso 1.000000     H
    H   1.0     0.257040     0.903167     0.044882  Biso 1.000000     H
    C   1.0     0.186104     0.724188     0.098740  Biso 1.000000     C
    C   1.0     0.014992     0.620276    -0.033009  Biso 1.000000     C
    C   1.0     0.264373     0.689827     0.054520  Biso 1.000000     C
    C   1.0     0.085692     0.581740     0.916980  Biso 1.000000     C
    C   1.0     0.213964     0.616814    -0.038999  Biso 1.000000     C
    C   1.0     0.292532     0.579458     0.906801  Biso 1.000000     C
    C   1.0     0.400553     0.543189     0.957250  Biso 1.000000     C
    C   1.0     0.383773     0.446432     0.970286  Biso 1.000000     C
    C   1.0     0.482477     0.408278     0.011525  Biso 1.000000     C
    C   1.0     0.228582     0.186201     0.534273  Biso 1.000000     C
    C   1.0     0.053695     0.051224     0.471689  Biso 1.000000     C
    C   1.0     0.165121     0.264116     0.552558  Biso 1.000000     C
    C   1.0     0.982626     0.123176     0.487771  Biso 1.000000     C
    C   1.0     0.038760     0.232628     0.529258  Biso 1.000000     C
    C   1.0    -0.035714     0.311872     0.551536  Biso 1.000000     C
    C   1.0    -0.015303     0.408357     0.526207  Biso 1.000000     C
    C   1.0     0.919386     0.407452     0.436411  Biso 1.000000     C
    C   1.0     0.931949     0.498604     0.414993  Biso 1.000000     C
    C   1.0     0.228326     0.694827     0.320463  Biso 1.000000     C
    C   1.0     0.268726     0.863054     0.428613  Biso 1.000000     C
    C   1.0     0.291674     0.658841     0.390057  Biso 1.000000     C
    C   1.0     0.334287     0.834396     0.502794  Biso 1.000000     C
    C   1.0     0.346832     0.729893     0.484183  Biso 1.000000     C
    C   1.0     0.415009     0.697334     0.564828  Biso 1.000000     C
    C   1.0     0.460821     0.600100     0.534036  Biso 1.000000     C
    C   1.0     0.574653     0.607900     0.526604  Biso 1.000000     C
    C   1.0     0.614984     0.517916     0.493007  Biso 1.000000     C
    C   1.0     0.952891     0.918859     0.110069  Biso 1.000000     C
    C   1.0     0.000000     0.000000     0.141058  Biso 1.000000     C
    C   1.0     0.843372     0.925858     0.047706  Biso 1.000000     C
    C   1.0     0.944300     0.104519     0.079286  Biso 1.000000     C
    C   1.0     0.838100     0.000000     0.030807  Biso 1.000000     C
    C   1.0     0.724187     0.000000     0.960196  Biso 1.000000     C
    C   1.0     0.610855     0.000000     0.981710  Biso 1.000000     C
    C   1.0     0.599481     0.094335     0.056378  Biso 1.000000     C
    C   1.0     0.494143     0.084111     0.075789  Biso 1.000000     C
    C   1.0     0.813255     0.280685     0.897747  Biso 1.000000     C
    C   1.0     0.984753     0.397974     0.000000  Biso 1.000000     C
    C   1.0     0.737196     0.313140     0.944722  Biso 1.000000     C
    C   1.0     0.916283     0.435185     0.074203  Biso 1.000000     C
    C   1.0     0.789067     0.392243     0.000000  Biso 1.000000     C
    C   1.0     0.712589     0.428307     0.092130  Biso 1.000000     C
    C   1.0     0.604249     0.465474     0.043255  Biso 1.000000     C
    C   1.0     0.620998     0.562262     0.030272  Biso 1.000000     C
    C   1.0     0.522301     0.600409     0.989037  Biso 1.000000     C
    C   1.0     0.756703     0.822634     0.432166  Biso 1.000000     C
    C   1.0     0.896189     0.905235     0.585288  Biso 1.000000     C
    C   1.0     0.829526     0.754812     0.409482  Biso 1.000000     C
    C   1.0    -0.025043     0.840868     0.569254  Biso 1.000000     C
    C   1.0     0.942225     0.763758     0.479162  Biso 1.000000     C
    C   1.0     0.000000     0.694437     0.457300  Biso 1.000000     C
    C   1.0     0.000000     0.596001     0.481144  Biso 1.000000     C
    C   1.0     0.079313     0.596499     0.570413  Biso 1.000000     C
    C   1.0     0.065687     0.505543     0.591985  Biso 1.000000     C
    C   1.0     0.750871     0.298841     0.671753  Biso 1.000000     C
    C   1.0     0.697118     0.131558     0.558399  Biso 1.000000     C
    C   1.0     0.698245     0.342014     0.604794  Biso 1.000000     C
    C   1.0     0.642475     0.167658     0.486598  Biso 1.000000     C
    C   1.0     0.642367     0.275472     0.509297  Biso 1.000000     C
    C   1.0     0.586582     0.316377     0.431637  Biso 1.000000     C
    C   1.0     0.543445     0.414872     0.464095  Biso 1.000000     C
    C   1.0     0.429456     0.407104     0.471365  Biso 1.000000     C
    C   1.0     0.389601     0.497015     0.505641  Biso 1.000000     C
    C   1.0     0.058235     0.096348     0.886958  Biso 1.000000     C
    C   1.0    -0.040407    -0.076037     0.851689  Biso 1.000000     C
    C   1.0     0.164776     0.088901     0.952301  Biso 1.000000     C
    C   1.0     0.061270     0.909592     0.916279  Biso 1.000000     C
    C   1.0     0.167296    -0.006322     0.968373  Biso 1.000000     C
    C   1.0     0.278520    -0.017850     0.041132  Biso 1.000000     C
    C   1.0     0.393479    -0.004539     0.021470  Biso 1.000000     C
    C   1.0     0.405116     0.917849     0.947071  Biso 1.000000     C
    C   1.0     0.510405     0.928070     0.927645  Biso 1.000000     C
    N   1.0     0.062558     0.690664     0.056628  Biso 1.000000     N
    N   1.0     0.175289     0.080886     0.494395  Biso 1.000000     N
    N   1.0     0.215958     0.795062     0.337721  Biso 1.000000     N
    N   1.0     0.000000     0.999860     0.156745  Biso 1.000000     N
    N   1.0     0.935883     0.321688     0.934605  Biso 1.000000     N
    N   1.0     0.788201     0.897664     0.518257  Biso 1.000000     N
    N   1.0     0.751110     0.195376     0.650496  Biso 1.000000     N
    N   1.0    -0.043880     0.015245     0.836289  Biso 1.000000     N
    F   1.0     0.267971     0.387131     0.940878  Biso 1.000000     F
    F   1.0     0.458339     0.313009     0.020842  Biso 1.000000     F
    F   1.0     0.838087     0.316407     0.368300  Biso 1.000000     F
    F   1.0     0.862007     0.491746     0.326774  Biso 1.000000     F
    F   1.0     0.648415     0.704990     0.552200  Biso 1.000000     F
    F   1.0     0.727620     0.532706     0.489435  Biso 1.000000     F
    F   1.0     0.693507     0.183032     0.111235  Biso 1.000000     F
    F   1.0     0.490527     0.162992     0.149605  Biso 1.000000     F
    F   1.0     0.736800     0.621323     0.059255  Biso 1.000000     F
    F   1.0     0.546362     0.695382     0.979212  Biso 1.000000     F
    F   1.0     0.161661     0.687385     0.638531  Biso 1.000000     F
    F   1.0     0.134109     0.512568     0.680637  Biso 1.000000     F
    F   1.0     0.355790     0.309269     0.444452  Biso 1.000000     F
    F   1.0     0.277398     0.483379     0.510341  Biso 1.000000     F
    F   1.0     0.310957     0.829253     0.892100  Biso 1.000000     F
    F   1.0     0.514025     0.849335     0.853775  Biso 1.000000     F
   Cd   1.0     0.308214     0.000000     0.296282  Biso 1.000000    Cd
   Cd   1.0     0.674138    -0.020485     0.703659  Biso 1.000000    Cd
