#======================================================================

# CRYSTAL DATA

#----------------------------------------------------------------------

data_VESTA_phase_1


_pd_phase_name                         MOF
_cell_length_a                         13.18500
_cell_length_b                         13.18700
_cell_length_c                         16.41000
_cell_angle_alpha                      66.33900
_cell_angle_beta                       66.27500
_cell_angle_gamma                      89.95000
_symmetry_space_group_name_H-M         "P 1"
_symmetry_Int_Tables_number            1

loop_
_symmetry_equiv_pos_as_xyz
   "x, y, z"

loop_
   _atom_site_label
   _atom_site_occupancy
   _atom_site_fract_x
   _atom_site_fract_y
   _atom_site_fract_z
   _atom_site_adp_type
   _atom_site_B_iso_or_equiv
   _atom_site_type_symbol
    H   1.0     0.423776     0.201314     0.160100  Biso 1.000000     H
    H   1.0     0.369930     0.658545     0.665364  Biso 1.000000     H
    H   1.0     0.390328     0.806768     0.601033  Biso 1.000000     H
    H   1.0     0.681470     0.776820     0.227031  Biso 1.000000     H
    H   1.0     0.660585     0.905878     0.234534  Biso 1.000000     H
    H   1.0     0.416782     0.638652     0.159250  Biso 1.000000     H
    H   1.0    -0.035938     0.676442     0.665058  Biso 1.000000     H
    H   1.0     0.008381     0.592556     0.600730  Biso 1.000000     H
    H   1.0     0.092120     0.996032     0.226774  Biso 1.000000     H
    H   1.0     0.105296     0.859542     0.234226  Biso 1.000000     H
    H   1.0     0.200887     0.415971     0.160023  Biso 1.000000     H
    H   1.0     0.658546    -0.036887     0.665096  Biso 1.000000     H
    H   1.0     0.806559     0.007755     0.600797  Biso 1.000000     H
    H   1.0     0.776941     0.091670     0.226700  Biso 1.000000     H
    H   1.0     0.906030     0.104853     0.234115  Biso 1.000000     H
    H   1.0     0.639509     0.424107     0.159341  Biso 1.000000     H
    H   1.0     0.676091     0.371733     0.665089  Biso 1.000000     H
    H   1.0     0.592513     0.391417     0.600666  Biso 1.000000     H
    H   1.0     0.996420     0.681164     0.226737  Biso 1.000000     H
    H   1.0     0.859849     0.660629     0.234225  Biso 1.000000     H
    H   1.0     0.576204     0.798698     0.839895  Biso 1.000000     H
    H   1.0     0.630050     0.341446     0.334639  Biso 1.000000     H
    H   1.0     0.609643     0.193221     0.398969  Biso 1.000000     H
    H   1.0     0.318510     0.223168     0.772973  Biso 1.000000     H
    H   1.0     0.339387     0.094112     0.765466  Biso 1.000000     H
    H   1.0     0.583207     0.361346     0.840745  Biso 1.000000     H
    H   1.0     0.000000     0.323563     0.334944  Biso 1.000000     H
    H   1.0     0.991607     0.407450     0.399270  Biso 1.000000     H
    H   1.0     0.907859     0.003969     0.773226  Biso 1.000000     H
    H   1.0     0.894697     0.140463     0.765773  Biso 1.000000     H
    H   1.0     0.799118     0.584012     0.839980  Biso 1.000000     H
    H   1.0     0.341417     0.000000     0.334907  Biso 1.000000     H
    H   1.0     0.193403     0.992248     0.399204  Biso 1.000000     H
    H   1.0     0.223022     0.908319     0.773304  Biso 1.000000     H
    H   1.0     0.093932     0.895148     0.765889  Biso 1.000000     H
    H   1.0     0.360490     0.575871     0.840662  Biso 1.000000     H
    H   1.0     0.323904     0.628271     0.334909  Biso 1.000000     H
    H   1.0     0.407482     0.608577     0.399333  Biso 1.000000     H
    H   1.0     0.003573     0.318838     0.773262  Biso 1.000000     H
    H   1.0     0.140145     0.339366     0.765773  Biso 1.000000     H
    H   1.0     0.419423     0.324278     0.000605  Biso 1.000000     H
    H   1.0     0.755404     0.153162    -0.000097  Biso 1.000000     H
    H   1.0     0.580566     0.675754    -0.000612  Biso 1.000000     H
    H   1.0     0.244560     0.846829     0.000107  Biso 1.000000     H
    H   1.0     0.323376     0.579916     0.000464  Biso 1.000000     H
    H   1.0     0.153223     0.244308    -0.000004  Biso 1.000000     H
    H   1.0     0.676602     0.420088    -0.000461  Biso 1.000000     H
    H   1.0     0.846800     0.755668     0.000015  Biso 1.000000     H
    C   1.0     0.596566     0.094145     0.184068  Biso 1.000000     C
    C   1.0     0.589750     0.168570     0.090236  Biso 1.000000     C
    C   1.0     0.495014     0.217165     0.090008  Biso 1.000000     C
    C   1.0     0.466905     0.721788     0.516911  Biso 1.000000     C
    C   1.0     0.572487     0.762256     0.362663  Biso 1.000000     C
    C   1.0     0.219608     0.721292     0.184016  Biso 1.000000     C
    C   1.0     0.320264     0.741120     0.089954  Biso 1.000000     C
    C   1.0     0.415446     0.692987     0.089319  Biso 1.000000     C
    C   1.0     0.015884     0.761404     0.516657  Biso 1.000000     C
    C   1.0     0.065231     0.875104     0.362369  Biso 1.000000     C
    C   1.0     0.094231     0.219054     0.184126  Biso 1.000000     C
    C   1.0     0.168404     0.319738     0.090256  Biso 1.000000     C
    C   1.0     0.216734     0.414794     0.089956  Biso 1.000000     C
    C   1.0     0.721911     0.014842     0.516734  Biso 1.000000     C
    C   1.0     0.762374     0.064500     0.362371  Biso 1.000000     C
    C   1.0     0.721789     0.596695     0.183943  Biso 1.000000     C
    C   1.0     0.741549     0.590027     0.089940  Biso 1.000000     C
    C   1.0     0.693620     0.495418     0.089378  Biso 1.000000     C
    C   1.0     0.761333     0.468144     0.516690  Biso 1.000000     C
    C   1.0     0.875308     0.572809     0.362387  Biso 1.000000     C
    C   1.0     0.403395     0.905842     0.815937  Biso 1.000000     C
    C   1.0     0.410218     0.831416     0.909765  Biso 1.000000     C
    C   1.0     0.504969     0.782848     0.909988  Biso 1.000000     C
    C   1.0     0.533076     0.278203     0.483092  Biso 1.000000     C
    C   1.0     0.427495     0.237733     0.637340  Biso 1.000000     C
    C   1.0     0.780382     0.278712     0.815986  Biso 1.000000     C
    C   1.0     0.679721     0.258878     0.910047  Biso 1.000000     C
    C   1.0     0.584547     0.307025     0.910678  Biso 1.000000     C
    C   1.0     0.984092     0.238600     0.483344  Biso 1.000000     C
    C   1.0     0.934749     0.124900     0.637632  Biso 1.000000     C
    C   1.0     0.905739     0.780946     0.815882  Biso 1.000000     C
    C   1.0     0.831599     0.680243     0.909750  Biso 1.000000     C
    C   1.0     0.783242     0.585201     0.910047  Biso 1.000000     C
    C   1.0     0.278049     0.985153     0.483269  Biso 1.000000     C
    C   1.0     0.237586     0.935493     0.637633  Biso 1.000000     C
    C   1.0     0.278199     0.403285     0.816065  Biso 1.000000     C
    C   1.0     0.258469     0.409942     0.910066  Biso 1.000000     C
    C   1.0     0.306359     0.504572     0.910626  Biso 1.000000     C
    C   1.0     0.238660     0.531857     0.483308  Biso 1.000000     C
    C   1.0     0.124686     0.427191     0.637611  Biso 1.000000     C
    C   1.0     0.492833     0.286268     0.000444  Biso 1.000000     C
    C   1.0     0.681633     0.190220     0.000046  Biso 1.000000     C
    C   1.0     0.507149     0.713754    -0.000447  Biso 1.000000     C
    C   1.0     0.318343     0.809793    -0.000041  Biso 1.000000     C
    C   1.0     0.285578     0.506588     0.000358  Biso 1.000000     C
    C   1.0     0.190058     0.318002     0.000100  Biso 1.000000     C
    C   1.0     0.714407     0.493411    -0.000352  Biso 1.000000     C
    C   1.0     0.809916     0.682000    -0.000090  Biso 1.000000     C
    N   1.0     0.477146     0.622542     0.512907  Biso 1.000000     N
    N   1.0     0.546148     0.648370     0.411842  Biso 1.000000     N
    N   1.0     0.523716     0.811327     0.425098  Biso 1.000000     N
    N   1.0     0.410411     0.731501     0.601845  Biso 1.000000     N
    N   1.0     0.634384     0.820036     0.264414  Biso 1.000000     N
    N   1.0     0.009895     0.864647     0.512698  Biso 1.000000     N
    N   1.0     0.042310     0.939835     0.411626  Biso 1.000000     N
    N   1.0     0.051235     0.763652     0.424763  Biso 1.000000     N
    N   1.0    -0.013366     0.666748     0.601636  Biso 1.000000     N
    N   1.0     0.101998     0.915560     0.264043  Biso 1.000000     N
    N   1.0     0.622593     0.008976     0.512815  Biso 1.000000     N
    N   1.0     0.648405     0.041598     0.411703  Biso 1.000000     N
    N   1.0     0.811474     0.050298     0.424798  Biso 1.000000     N
    N   1.0     0.731678    -0.014832     0.601772  Biso 1.000000     N
    N   1.0     0.820151     0.101417     0.264016  Biso 1.000000     N
    N   1.0     0.864558     0.477997     0.512803  Biso 1.000000     N
    N   1.0     0.939923     0.546470     0.411712  Biso 1.000000     N
    N   1.0     0.763769     0.524574     0.424768  Biso 1.000000     N
    N   1.0     0.666489     0.412707     0.601668  Biso 1.000000     N
    N   1.0     0.915851     0.634231     0.264069  Biso 1.000000     N
    N   1.0     0.522846     0.377448     0.487098  Biso 1.000000     N
    N   1.0     0.453844     0.351620     0.588164  Biso 1.000000     N
    N   1.0     0.476258     0.188664     0.574904  Biso 1.000000     N
    N   1.0     0.589566     0.268490     0.398158  Biso 1.000000     N
    N   1.0     0.365595     0.179953     0.735589  Biso 1.000000     N
    N   1.0     0.990070     0.135356     0.487304  Biso 1.000000     N
    N   1.0     0.957655     0.060168     0.588376  Biso 1.000000     N
    N   1.0     0.948750     0.236353     0.575237  Biso 1.000000     N
    N   1.0     0.000000     0.333257     0.398364  Biso 1.000000     N
    N   1.0     0.897993     0.084446     0.735956  Biso 1.000000     N
    N   1.0     0.377366     0.991013     0.487190  Biso 1.000000     N
    N   1.0     0.351554     0.958389     0.588302  Biso 1.000000     N
    N   1.0     0.188486     0.949700     0.575205  Biso 1.000000     N
    N   1.0     0.268284     0.000000     0.398231  Biso 1.000000     N
    N   1.0     0.179810     0.898577     0.735988  Biso 1.000000     N
    N   1.0     0.135434     0.522009     0.487197  Biso 1.000000     N
    N   1.0     0.060069     0.453535     0.588288  Biso 1.000000     N
    N   1.0     0.236225     0.475423     0.575229  Biso 1.000000     N
    N   1.0     0.333505     0.587292     0.398330  Biso 1.000000     N
    N   1.0     0.084143     0.365766     0.735928  Biso 1.000000     N
    O   1.0     0.508402     0.068834     0.267024  Biso 1.000000     O
    O   1.0     0.686652     0.058701     0.179465  Biso 1.000000     O
    O   1.0     0.225085     0.663821     0.266823  Biso 1.000000     O
    O   1.0     0.133813     0.760877     0.179762  Biso 1.000000     O
    O   1.0     0.068899     0.224314     0.267057  Biso 1.000000     O
    O   1.0     0.058972     0.133510     0.179595  Biso 1.000000     O
    O   1.0     0.664261     0.508538     0.266793  Biso 1.000000     O
    O   1.0     0.761497     0.686702     0.179553  Biso 1.000000     O
    O   1.0     0.491559     0.931165     0.732978  Biso 1.000000     O
    O   1.0     0.313307     0.941285     0.820546  Biso 1.000000     O
    O   1.0     0.774905     0.336183     0.733179  Biso 1.000000     O
    O   1.0     0.866175     0.239124     0.820242  Biso 1.000000     O
    O   1.0     0.931067     0.775693     0.732948  Biso 1.000000     O
    O   1.0     0.940991     0.866487     0.820419  Biso 1.000000     O
    O   1.0     0.335716     0.491446     0.733214  Biso 1.000000     O
    O   1.0     0.238480     0.313281     0.820457  Biso 1.000000     O
   Zn   1.0     0.526447     0.978376     0.391051  Biso 1.000000    Zn
   Zn   1.0     0.082727     0.630414     0.390810  Biso 1.000000    Zn
   Zn   1.0     0.978487     0.082231     0.390979  Biso 1.000000    Zn
   Zn   1.0     0.630634     0.526795     0.390834  Biso 1.000000    Zn
   Zn   1.0     0.473505     0.021614     0.608953  Biso 1.000000    Zn
   Zn   1.0     0.917262     0.369589     0.609191  Biso 1.000000    Zn
   Zn   1.0     0.021478     0.917774     0.609022  Biso 1.000000    Zn
   Zn   1.0     0.369359     0.473196     0.609168  Biso 1.000000    Zn
