#======================================================================

# CRYSTAL DATA

#----------------------------------------------------------------------

data_VESTA_phase_1


_pd_phase_name                         MOF
_cell_length_a                         13.18500
_cell_length_b                         12.88400
_cell_length_c                         16.25200
_cell_angle_alpha                      112.96400
_cell_angle_beta                       113.65200
_cell_angle_gamma                      90.49300
_symmetry_space_group_name_H-M         "P 1"
_symmetry_Int_Tables_number            1

loop_
_symmetry_equiv_pos_as_xyz
   "x, y, z"

loop_
   _atom_site_label
   _atom_site_occupancy
   _atom_site_fract_x
   _atom_site_fract_y
   _atom_site_fract_z
   _atom_site_adp_type
   _atom_site_B_iso_or_equiv
   _atom_site_type_symbol
    H   1.0     0.863339     0.000000     0.161741  Biso 1.000000     H
    H   1.0     0.884320     0.193269     0.436072  Biso 1.000000     H
    H   1.0     0.181533     0.356900     0.766559  Biso 1.000000     H
    H   1.0     0.212114     0.492054     0.768112  Biso 1.000000     H
    H   1.0     0.297536     0.087561     0.159818  Biso 1.000000     H
    H   1.0     0.552048     0.242832     0.435852  Biso 1.000000     H
    H   1.0     0.584647     0.408114     0.766353  Biso 1.000000     H
    H   1.0     0.554977     0.274703     0.767961  Biso 1.000000     H
    H   1.0     0.000000     0.296843     0.161760  Biso 1.000000     H
    H   1.0     0.191538     0.517037     0.428488  Biso 1.000000     H
    H   1.0     0.375580     0.622418     0.778697  Biso 1.000000     H
    H   1.0     0.509925     0.601153     0.781608  Biso 1.000000     H
    H   1.0     0.090097     0.864857     0.159588  Biso 1.000000     H
    H   1.0     0.236934     0.911765     0.428161  Biso 1.000000     H
    H   1.0     0.402150     0.153100     0.778482  Biso 1.000000     H
    H   1.0     0.270850     0.177048     0.781467  Biso 1.000000     H
    H   1.0     0.136725    -0.074136     0.838406  Biso 1.000000     H
    H   1.0     0.115759     0.806758     0.564025  Biso 1.000000     H
    H   1.0     0.818512     0.643147     0.233562  Biso 1.000000     H
    H   1.0     0.787906     0.508005     0.232013  Biso 1.000000     H
    H   1.0     0.702556     0.912471     0.840329  Biso 1.000000     H
    H   1.0     0.447949     0.757165     0.564251  Biso 1.000000     H
    H   1.0     0.415454     0.591889     0.233789  Biso 1.000000     H
    H   1.0     0.445125     0.725292     0.232181  Biso 1.000000     H
    H   1.0    -0.071361     0.703237     0.838348  Biso 1.000000     H
    H   1.0     0.808510     0.483022     0.571656  Biso 1.000000     H
    H   1.0     0.624465     0.377629     0.221445  Biso 1.000000     H
    H   1.0     0.490113     0.398855     0.218530  Biso 1.000000     H
    H   1.0     0.909939     0.135269     0.840520  Biso 1.000000     H
    H   1.0     0.763125     0.088285     0.571969  Biso 1.000000     H
    H   1.0     0.597898     0.846892     0.221656  Biso 1.000000     H
    H   1.0     0.729202     0.822964     0.218667  Biso 1.000000     H
    H   1.0     0.826485     0.907907     0.001476  Biso 1.000000     H
    H   1.0     0.653200     0.248193    -0.000323  Biso 1.000000     H
    H   1.0     0.173617     0.092185    -0.001331  Biso 1.000000     H
    H   1.0     0.346805     0.751831     0.000401  Biso 1.000000     H
    H   1.0     0.905445     0.173904     0.001683  Biso 1.000000     H
    H   1.0     0.243560     0.343820    -0.000485  Biso 1.000000     H
    H   1.0     0.094532     0.826230    -0.001615  Biso 1.000000     H
    H   1.0     0.756502     0.656257     0.000631  Biso 1.000000     H
    C   1.0     0.760464     0.171720     0.090813  Biso 1.000000     C
    C   1.0     0.809132     0.075257     0.090940  Biso 1.000000     C
    C   1.0     0.089899     0.371413     0.638474  Biso 1.000000     C
    C   1.0     0.949369     0.265725     0.497699  Biso 1.000000     C
    C   1.0     0.781170     0.273499     0.185263  Biso 1.000000     C
    C   1.0     0.330220     0.919430     0.090279  Biso 1.000000     C
    C   1.0     0.281088     0.015481     0.089410  Biso 1.000000     C
    C   1.0     0.548112     0.266168     0.638295  Biso 1.000000     C
    C   1.0     0.548302     0.231723     0.497484  Biso 1.000000     C
    C   1.0     0.404522     0.912995     0.185253  Biso 1.000000     C
    C   1.0     0.167661     0.328554     0.090665  Biso 1.000000     C
    C   1.0     0.071938     0.280346     0.090914  Biso 1.000000     C
    C   1.0     0.385109     0.576416     0.647295  Biso 1.000000     C
    C   1.0     0.267955     0.532214     0.494916  Biso 1.000000     C
    C   1.0     0.269324     0.400650     0.185161  Biso 1.000000     C
    C   1.0     0.923182     0.762533     0.090230  Biso 1.000000     C
    C   1.0     0.018584     0.810311     0.089238  Biso 1.000000     C
    C   1.0     0.261648     0.068702     0.647168  Biso 1.000000     C
    C   1.0     0.226801     0.962294     0.494661  Biso 1.000000     C
    C   1.0     0.916630     0.786033     0.185349  Biso 1.000000     C
    C   1.0     0.239581     0.828335     0.909308  Biso 1.000000     C
    C   1.0     0.190931     0.924811     0.909199  Biso 1.000000     C
    C   1.0     0.910138     0.628637     0.361645  Biso 1.000000     C
    C   1.0     0.050694     0.734310     0.502405  Biso 1.000000     C
    C   1.0     0.218844     0.726552     0.814849  Biso 1.000000     C
    C   1.0     0.669840     0.080594     0.909842  Biso 1.000000     C
    C   1.0     0.718990     0.984557     0.910730  Biso 1.000000     C
    C   1.0     0.451970     0.733827     0.361837  Biso 1.000000     C
    C   1.0     0.451720     0.768272     0.502626  Biso 1.000000     C
    C   1.0     0.595520     0.087001     0.814859  Biso 1.000000     C
    C   1.0     0.832364     0.671512     0.909472  Biso 1.000000     C
    C   1.0     0.928063     0.719739     0.909201  Biso 1.000000     C
    C   1.0     0.614931     0.423608     0.352844  Biso 1.000000     C
    C   1.0     0.732089     0.467829     0.505226  Biso 1.000000     C
    C   1.0     0.730698     0.599387     0.814988  Biso 1.000000     C
    C   1.0     0.076876     0.237560     0.909907  Biso 1.000000     C
    C   1.0     0.981449     0.189800     0.910878  Biso 1.000000     C
    C   1.0     0.738406     0.931312     0.352967  Biso 1.000000     C
    C   1.0     0.773256     0.037746     0.505469  Biso 1.000000     C
    C   1.0     0.083460     0.214062     0.814801  Biso 1.000000     C
    C   1.0     0.788270     0.982326     0.001079  Biso 1.000000     C
    C   1.0     0.690874     0.173520     0.000069  Biso 1.000000     C
    C   1.0     0.211798     0.017744    -0.000950  Biso 1.000000     C
    C   1.0     0.309152     0.826518     0.000023  Biso 1.000000     C
    C   1.0     0.979291     0.211471     0.001193  Biso 1.000000     C
    C   1.0     0.169297     0.307117    -0.000025  Biso 1.000000     C
    C   1.0     0.020707     0.788649    -0.001109  Biso 1.000000     C
    C   1.0     0.830749     0.692969     0.000154  Biso 1.000000     C
    N   1.0     0.966399     0.366305     0.496215  Biso 1.000000     N
    N   1.0     0.056967     0.436452     0.587465  Biso 1.000000     N
    N   1.0     0.022776     0.263527     0.583903  Biso 1.000000     N
    N   1.0     0.178003     0.405404     0.728265  Biso 1.000000     N
    N   1.0     0.529490     0.129769     0.496073  Biso 1.000000     N
    N   1.0     0.529913     0.150442     0.587353  Biso 1.000000     N
    N   1.0     0.561039     0.319640     0.583659  Biso 1.000000     N
    N   1.0     0.549590     0.321667     0.728065  Biso 1.000000     N
    N   1.0     0.366911     0.517813     0.494216  Biso 1.000000     N
    N   1.0     0.444257     0.546545     0.592585  Biso 1.000000     N
    N   1.0     0.273414     0.568321     0.587382  Biso 1.000000     N
    N   1.0     0.429843     0.613618     0.746218  Biso 1.000000     N
    N   1.0     0.127157     0.976032     0.493998  Biso 1.000000     N
    N   1.0     0.147956     0.044590     0.592461  Biso 1.000000     N
    N   1.0     0.313581     0.017614     0.587185  Biso 1.000000     N
    N   1.0     0.315556     0.129022     0.746209  Biso 1.000000     N
    N   1.0     0.033646     0.633737     0.503895  Biso 1.000000     N
    N   1.0     0.943060     0.563600     0.412655  Biso 1.000000     N
    N   1.0     0.977283     0.736511     0.416204  Biso 1.000000     N
    N   1.0     0.822022     0.594654     0.271860  Biso 1.000000     N
    N   1.0     0.470538     0.870226     0.504038  Biso 1.000000     N
    N   1.0     0.470154     0.849552     0.412772  Biso 1.000000     N
    N   1.0     0.439014     0.680354     0.416463  Biso 1.000000     N
    N   1.0     0.450536     0.678330     0.272083  Biso 1.000000     N
    N   1.0     0.633128     0.482203     0.505922  Biso 1.000000     N
    N   1.0     0.555778     0.453455     0.407550  Biso 1.000000     N
    N   1.0     0.726630     0.431728     0.412760  Biso 1.000000     N
    N   1.0     0.570200     0.386403     0.253919  Biso 1.000000     N
    N   1.0     0.872901     0.024016     0.506131  Biso 1.000000     N
    N   1.0     0.852100     0.955439     0.407670  Biso 1.000000     N
    N   1.0     0.686474     0.982405     0.412949  Biso 1.000000     N
    N   1.0     0.684491     0.870973     0.253928  Biso 1.000000     N
    O   1.0     0.733596     0.357250     0.180653  Biso 1.000000     O
    O   1.0     0.847180     0.270906     0.268242  Biso 1.000000     O
    O   1.0     0.448337     0.825241     0.181412  Biso 1.000000     O
    O   1.0     0.421099    -0.001505     0.267892  Biso 1.000000     O
    O   1.0     0.354306     0.441019     0.181345  Biso 1.000000     O
    O   1.0     0.266016     0.417873     0.267827  Biso 1.000000     O
    O   1.0     0.827960     0.742989     0.182505  Biso 1.000000     O
    O   1.0     0.002779     0.851102     0.267577  Biso 1.000000     O
    O   1.0     0.266420     0.642800     0.819450  Biso 1.000000     O
    O   1.0     0.152834     0.729151     0.731873  Biso 1.000000     O
    O   1.0     0.551686     0.174743     0.818690  Biso 1.000000     O
    O   1.0     0.578958     0.000000     0.732225  Biso 1.000000     O
    O   1.0     0.645741     0.559003     0.818826  Biso 1.000000     O
    O   1.0     0.733989     0.582147     0.732312  Biso 1.000000     O
    O   1.0     0.172152     0.257094     0.817668  Biso 1.000000     O
    O   1.0     0.997318     0.148998     0.732565  Biso 1.000000     O
   Zn   1.0     0.866536     0.411351     0.387191  Biso 1.000000    Zn
   Zn   1.0     0.520800     0.976573     0.387065  Biso 1.000000    Zn
   Zn   1.0     0.409809     0.509897     0.384826  Biso 1.000000    Zn
   Zn   1.0     0.974817     0.875648     0.384494  Biso 1.000000    Zn
   Zn   1.0     0.133487     0.588699     0.612926  Biso 1.000000    Zn
   Zn   1.0     0.479242     0.023423     0.613050  Biso 1.000000    Zn
   Zn   1.0     0.590223     0.490097     0.615304  Biso 1.000000    Zn
   Zn   1.0     0.025249     0.124399     0.615627  Biso 1.000000    Zn
