#======================================================================

# CRYSTAL DATA

#----------------------------------------------------------------------

data_VESTA_phase_1


_pd_phase_name                         MOF
_cell_length_a                         12.74000
_cell_length_b                         13.14100
_cell_length_c                         15.58600
_cell_angle_alpha                      91.93900
_cell_angle_beta                       94.78000
_cell_angle_gamma                      97.75600
_symmetry_space_group_name_H-M         "P 1"
_symmetry_Int_Tables_number            1

loop_
_symmetry_equiv_pos_as_xyz
   "x, y, z"

loop_
   _atom_site_label
   _atom_site_occupancy
   _atom_site_fract_x
   _atom_site_fract_y
   _atom_site_fract_z
   _atom_site_adp_type
   _atom_site_B_iso_or_equiv
   _atom_site_type_symbol
    H   1.0     0.410676     0.747010     0.786014  Biso 1.000000     H
    H   1.0     0.627418     0.186944     0.610239  Biso 1.000000     H
    H   1.0     0.570790     0.463188     0.952226  Biso 1.000000     H
    H   1.0     0.135600     0.273395     0.509958  Biso 1.000000     H
    H   1.0     0.759580     0.411401     0.649686  Biso 1.000000     H
    H   1.0     0.120952     0.860658     0.473172  Biso 1.000000     H
    H   1.0     0.540207     0.897654     0.025092  Biso 1.000000     H
    H   1.0     0.598246     0.792308     0.740929  Biso 1.000000     H
    H   1.0     0.418266     0.140428     0.800085  Biso 1.000000     H
    H   1.0     0.651165     0.381798     0.401087  Biso 1.000000     H
    H   1.0     0.946118     0.829573     0.039895  Biso 1.000000     H
    H   1.0     0.438295     0.357616     0.863674  Biso 1.000000     H
    H   1.0     0.812787     0.509447     0.535297  Biso 1.000000     H
    H   1.0     0.649706     0.805384     0.119477  Biso 1.000000     H
    H   1.0     0.053893     0.170430     0.960104  Biso 1.000000     H
    H   1.0     0.561708     0.642383     0.136322  Biso 1.000000     H
    H   1.0     0.103261     0.528123     0.238977  Biso 1.000000     H
    H   1.0     0.720512     0.983901     0.274773  Biso 1.000000     H
    H   1.0     0.354726     0.527777     0.138747  Biso 1.000000     H
    H   1.0     0.520937     0.757794     0.916266  Biso 1.000000     H
    H   1.0     0.226216     0.290974     0.289168  Biso 1.000000     H
    H   1.0     0.893056     0.254957     0.655131  Biso 1.000000     H
    H   1.0     0.836590     0.580882     0.783327  Biso 1.000000     H
    H   1.0     0.777474     0.050618     0.472087  Biso 1.000000     H
    H   1.0     0.981459     0.164423     0.640435  Biso 1.000000     H
    H   1.0     0.939488     0.914471     0.789448  Biso 1.000000     H
    H   1.0     0.932975     0.424890     0.403128  Biso 1.000000     H
    H   1.0     0.879069     0.139335     0.526827  Biso 1.000000     H
    H   1.0     0.802486     0.248818     0.391860  Biso 1.000000     H
    H   1.0     0.240434     0.588591     0.350314  Biso 1.000000     H
    H   1.0     0.682899     0.998030     0.901199  Biso 1.000000     H
    H   1.0     0.187232     0.490544     0.464702  Biso 1.000000     H
    H   1.0     0.106777     0.815490     0.152533  Biso 1.000000     H
    H   1.0     0.692921     0.321700     0.785487  Biso 1.000000     H
    H   1.0     0.018556     0.835578     0.359565  Biso 1.000000     H
    H   1.0     0.757542     0.765009     0.608943  Biso 1.000000     H
    H   1.0     0.560662     0.805809     0.631627  Biso 1.000000     H
    H   1.0     0.037792     0.529822     0.405631  Biso 1.000000     H
    H   1.0     0.986964     0.754466     0.557873  Biso 1.000000     H
    H   1.0     0.876368     0.800503     0.676635  Biso 1.000000     H
    H   1.0     0.163430     0.419108     0.216672  Biso 1.000000     H
    H   1.0     0.822196     0.090491     0.904935  Biso 1.000000     H
    H   1.0     0.106957     0.745041     0.344868  Biso 1.000000     H
    H   1.0     0.567445     0.681036     0.998339  Biso 1.000000     H
    H   1.0     0.377373     0.006399     0.519431  Biso 1.000000     H
    H   1.0     0.123641     0.199489     0.323363  Biso 1.000000     H
    H   1.0     0.762641     0.899625     0.885218  Biso 1.000000     H
    H   1.0     0.429213     0.536814     0.047770  Biso 1.000000     H
    H   1.0     0.773796     0.709016     0.710830  Biso 1.000000     H
    H   1.0     0.705058     0.438179     0.962227  Biso 1.000000     H
    H   1.0     0.688604     0.504560     0.691499  Biso 1.000000     H
    H   1.0     0.056792     0.494039     0.685360  Biso 1.000000     H
    H   1.0     0.581739     0.859572     0.199912  Biso 1.000000     H
    H   1.0     0.461233     0.087867     0.459617  Biso 1.000000     H
    H   1.0     0.659387     0.195071     0.819959  Biso 1.000000     H
    H   1.0     0.756742     0.283734     0.882442  Biso 1.000000     H
    H   1.0     0.340617     0.804928     0.180040  Biso 1.000000     H
    H   1.0     0.538782     0.912133     0.540380  Biso 1.000000     H
    H   1.0     0.067043     0.575112     0.596868  Biso 1.000000     H
    H   1.0     0.449534     0.634846     0.930767  Biso 1.000000     H
    H   1.0     0.550466     0.365156     0.069230  Biso 1.000000     H
    H   1.0     0.795381     0.966164     0.039640  Biso 1.000000     H
    H   1.0     0.622643     0.993602     0.480567  Biso 1.000000     H
    H   1.0     0.479666     0.031272     0.666861  Biso 1.000000     H
    H   1.0     0.444999     0.900151     0.100268  Biso 1.000000     H
    H   1.0     0.653163     0.869464     0.503164  Biso 1.000000     H
    H   1.0     0.242468     0.234981     0.391054  Biso 1.000000     H
    H   1.0     0.317106     0.001972     0.098798  Biso 1.000000     H
    H   1.0     0.625354     0.879262     0.850915  Biso 1.000000     H
    H   1.0     0.589334     0.252990     0.213982  Biso 1.000000     H
    H   1.0     0.348848     0.618191     0.598910  Biso 1.000000     H
    H   1.0     0.962229     0.470177     0.594365  Biso 1.000000     H
    H   1.0     0.060522     0.085534     0.210549  Biso 1.000000     H
    H   1.0     0.432556     0.318965     0.001656  Biso 1.000000     H
    H   1.0     0.034974     0.789513     0.255178  Biso 1.000000     H
    H   1.0     0.307085     0.678299     0.214512  Biso 1.000000     H
    H   1.0     0.346851     0.130535     0.496832  Biso 1.000000     H
    H   1.0     0.401765     0.207693     0.259069  Biso 1.000000     H
    H   1.0     0.520346     0.968730     0.333138  Biso 1.000000     H
    H   1.0     0.243260     0.716265     0.117559  Biso 1.000000     H
    H   1.0     0.279500     0.016101     0.725225  Biso 1.000000     H
    H   1.0     0.177814     0.909510     0.095064  Biso 1.000000     H
    H   1.0     0.943229     0.505962     0.314636  Biso 1.000000     H
    H   1.0     0.294944     0.561819     0.037773  Biso 1.000000     H
    H   1.0     0.350297     0.194614     0.880519  Biso 1.000000     H
    H   1.0     0.965039     0.210487     0.744822  Biso 1.000000     H
    H   1.0     0.439349     0.194192     0.368371  Biso 1.000000     H
    H   1.0     0.046040     0.365023     0.502325  Biso 1.000000     H
    H   1.0     0.459795     0.102348     0.974907  Biso 1.000000     H
    H   1.0     0.013047     0.245529     0.442124  Biso 1.000000     H
    H   1.0     0.896761     0.471869     0.761017  Biso 1.000000     H
    H   1.0     0.222548     0.949374     0.527912  Biso 1.000000     H
    H   1.0     0.311414     0.495435     0.308500  Biso 1.000000     H
    H   1.0     0.864411     0.726600     0.490040  Biso 1.000000     H
    H   1.0     0.374657     0.120737     0.149083  Biso 1.000000     H
    H   1.0     0.645282     0.472223     0.861252  Biso 1.000000     H
    H   1.0     0.197535     0.751179     0.608139  Biso 1.000000     H
    H   1.0     0.893230     0.184512     0.847466  Biso 1.000000     H
    H   1.0     0.372601     0.813043     0.389757  Biso 1.000000     H
    H   1.0     0.204630     0.033840     0.960357  Biso 1.000000     H
    H   1.0     0.555003     0.099848     0.899731  Biso 1.000000     H
    H   1.0     0.479063     0.242207     0.083731  Biso 1.000000     H
    H   1.0     0.237369     0.100381     0.114783  Biso 1.000000     H
    H   1.0     0.953973     0.634974     0.497671  Biso 1.000000     H
    C   1.0     0.078593     0.305665     0.465591  Biso 1.000000     C
    C   1.0     0.228965     0.939776     0.389218  Biso 1.000000     C
    C   1.0     0.313254     0.020804     0.387223  Biso 1.000000     C
    C   1.0     0.631200     0.428842     0.919205  Biso 1.000000     C
    C   1.0     0.127086     0.029907     0.925166  Biso 1.000000     C
    C   1.0     0.322793     0.418400     0.464075  Biso 1.000000     C
    C   1.0     0.495260     0.703060     0.964695  Biso 1.000000     C
    C   1.0     0.771053     0.060219     0.610780  Biso 1.000000     C
    C   1.0     0.277629     0.022054     0.230302  Biso 1.000000     C
    C   1.0     0.815046     0.735663     0.654893  Biso 1.000000     C
    C   1.0     0.130136     0.898644     0.150312  Biso 1.000000     C
    C   1.0     0.336351     0.062467     0.307496  Biso 1.000000     C
    C   1.0     0.595155     0.315250     0.893576  Biso 1.000000     C
    C   1.0     0.922091     0.186609     0.682204  Biso 1.000000     C
    C   1.0     0.256661     0.744591     0.562415  Biso 1.000000     C
    C   1.0     0.504740     0.296942     0.035303  Biso 1.000000     C
    C   1.0     0.205122     0.892401     0.473728  Biso 1.000000     C
    C   1.0     0.664647     0.039278     0.272708  Biso 1.000000     C
    C   1.0     0.496798     0.850923     0.071388  Biso 1.000000     C
    C   1.0     0.663661     0.937532     0.692502  Biso 1.000000     C
    C   1.0     0.832171     0.100017     0.687282  Biso 1.000000     C
    C   1.0     0.377683     0.063122     0.469583  Biso 1.000000     C
    C   1.0     0.872925     0.970097     0.074831  Biso 1.000000     C
    C   1.0     0.015385     0.681920     0.736219  Biso 1.000000     C
    C   1.0     0.424284     0.152052     0.305656  Biso 1.000000     C
    C   1.0     0.807133     0.058749     0.766595  Biso 1.000000     C
    C   1.0     0.763990     0.494093     0.665457  Biso 1.000000     C
    C   1.0     0.921419     0.694330     0.534406  Biso 1.000000     C
    C   1.0     0.622332     0.936877     0.530415  Biso 1.000000     C
    C   1.0     0.139980     0.465889     0.269521  Biso 1.000000     C
    C   1.0     0.060011     0.399335     0.320772  Biso 1.000000     C
    C   1.0     0.571148     0.245434     0.972694  Biso 1.000000     C
    C   1.0     0.570496     0.809810     0.141329  Biso 1.000000     C
    C   1.0     0.575727     0.847949     0.694342  Biso 1.000000     C
    C   1.0     0.400464     0.821323     0.760958  Biso 1.000000     C
    C   1.0     0.865488     0.650085     0.610881  Biso 1.000000     C
    C   1.0     0.054021     0.097774     0.925130  Biso 1.000000     C
    C   1.0     0.167843     0.899981     0.312717  Biso 1.000000     C
    C   1.0     0.599547     0.178678     0.239040  Biso 1.000000     C
    C   1.0     0.686761     0.979193     0.612775  Biso 1.000000     C
    C   1.0     0.945989     0.902229     0.074868  Biso 1.000000     C
    C   1.0     0.566005     0.031397     0.303489  Biso 1.000000     C
    C   1.0     0.303402     0.063678     0.144345  Biso 1.000000     C
    C   1.0     0.221253     0.444397     0.416446  Biso 1.000000     C
    C   1.0     0.010672     0.531293     0.635839  Biso 1.000000     C
    C   1.0     0.989347     0.468707     0.364158  Biso 1.000000     C
    C   1.0     0.192878     0.941252     0.233405  Biso 1.000000     C
    C   1.0     0.794899     0.107592     0.526270  Biso 1.000000     C
    C   1.0     0.516601     0.701357     0.160369  Biso 1.000000     C
    C   1.0     0.860039     0.534104     0.730476  Biso 1.000000     C
    C   1.0     0.984628     0.318078     0.263777  Biso 1.000000     C
    C   1.0     0.434007     0.968605     0.696510  Biso 1.000000     C
    C   1.0     0.722381     0.977947     0.769696  Biso 1.000000     C
    C   1.0     0.331654     0.679262     0.557088  Biso 1.000000     C
    C   1.0     0.992074     0.964502     0.835850  Biso 1.000000     C
    C   1.0     0.940005     0.600661     0.679224  Biso 1.000000     C
    C   1.0     0.368804     0.571158     0.080793  Biso 1.000000     C
    C   1.0     0.428854     0.754567     0.027306  Biso 1.000000     C
    C   1.0     0.490081     0.317793     0.744209  Biso 1.000000     C
    C   1.0     0.404849     0.684750     0.106425  Biso 1.000000     C
    C   1.0     0.743358     0.255402     0.437583  Biso 1.000000     C
    C   1.0     0.668361     0.320728     0.442910  Biso 1.000000     C
    C   1.0     0.509928     0.682207     0.255790  Biso 1.000000     C
    C   1.0     0.673523     0.220985     0.023259  Biso 1.000000     C
    C   1.0     0.652963     0.220795     0.551727  Biso 1.000000     C
    C   1.0     0.319297     0.724189     0.157642  Biso 1.000000     C
    C   1.0     0.677221     0.581584     0.535922  Biso 1.000000     C
    C   1.0     0.503205     0.149078     0.928611  Biso 1.000000     C
    C   1.0     0.326478     0.779015     0.976742  Biso 1.000000     C
    C   1.0     0.778764     0.555594     0.583552  Biso 1.000000     C
    C   1.0     0.869873     0.101359     0.849688  Biso 1.000000     C
    C   1.0     0.429507     0.190190     0.858668  Biso 1.000000     C
    C   1.0     0.007936     0.035502     0.164147  Biso 1.000000     C
    C   1.0     0.184965     0.264328     0.345104  Biso 1.000000     C
    C   1.0     0.696607     0.936324     0.855654  Biso 1.000000     C
    C   1.0     0.680706     0.275810     0.842357  Biso 1.000000     C
    C   1.0     0.335365     0.960724     0.727290  Biso 1.000000     C
    C   1.0     0.077922     0.813390     0.317796  Biso 1.000000     C
    C   1.0     0.483405     0.298643     0.839629  Biso 1.000000     C
    C   1.0     0.134525     0.349909     0.389116  Biso 1.000000     C
    C   1.0     0.236027     0.505900     0.334542  Biso 1.000000     C
    C   1.0     0.347055     0.779192     0.448269  Biso 1.000000     C
    N   1.0     0.912437     0.052980     0.130639  Biso 1.000000     N
    N   1.0     0.031057     0.944351     0.132146  Biso 1.000000     N
    N   1.0     0.387526     0.701555     0.485928  Biso 1.000000     N
    N   1.0     0.612489     0.298431     0.514069  Biso 1.000000     N
    N   1.0     0.315562     0.869145     0.767778  Biso 1.000000     N
    N   1.0     0.684449     0.130856     0.232220  Biso 1.000000     N
    N   1.0     0.474718     0.879377     0.718402  Biso 1.000000     N
    N   1.0     0.087573     0.947025     0.869357  Biso 1.000000     N
    N   1.0     0.525294     0.120624     0.281596  Biso 1.000000     N
    N   1.0     0.968953     0.055652     0.867853  Biso 1.000000     N
    N   1.0     0.267481     0.807451     0.492949  Biso 1.000000     N
    N   1.0     0.732540     0.192541     0.507048  Biso 1.000000     N
    O   1.0     0.989864     0.314947     0.182416  Biso 1.000000     O
    O   1.0     0.488838     0.244215     0.688936  Biso 1.000000     O
    O   1.0     0.010145     0.685053     0.817580  Biso 1.000000     O
    O   1.0     0.289605     0.861969     0.992106  Biso 1.000000     O
    O   1.0     0.585970     0.552472     0.563014  Biso 1.000000     O
    O   1.0     0.315413     0.369000     0.532894  Biso 1.000000     O
    O   1.0     0.497242     0.412308     0.723059  Biso 1.000000     O
    O   1.0     0.414046     0.447490     0.436976  Biso 1.000000     O
    O   1.0     0.511169     0.755783     0.311063  Biso 1.000000     O
    O   1.0     0.502768     0.587691     0.276938  Biso 1.000000     O
    O   1.0     0.915627     0.257797     0.299712  Biso 1.000000     O
    O   1.0     0.684597     0.630998     0.467109  Biso 1.000000     O
    O   1.0     0.710400     0.138034     0.007893  Biso 1.000000     O
    O   1.0     0.084384     0.742204     0.700285  Biso 1.000000     O
    O   1.0     0.716936     0.287815     0.082576  Biso 1.000000     O
    O   1.0     0.283064     0.712185     0.917425  Biso 1.000000     O
   Cd   1.0     0.505326     0.615447     0.420855  Biso 1.000000    Cd
   Cd   1.0     0.830635     0.195896     0.156322  Biso 1.000000    Cd
   Cd   1.0     0.494684     0.384529     0.579142  Biso 1.000000    Cd
   Cd   1.0     0.169373     0.804106     0.843675  Biso 1.000000    Cd
