#======================================================================

# CRYSTAL DATA

#----------------------------------------------------------------------

data_VESTA_phase_1


_pd_phase_name                         MOF
_cell_length_a                         20.43500
_cell_length_b                         20.41800
_cell_length_c                         16.56300
_cell_angle_alpha                      96.58600
_cell_angle_beta                       96.58300
_cell_angle_gamma                      86.00500
_symmetry_space_group_name_H-M         "P 1"
_symmetry_Int_Tables_number            1

loop_
_symmetry_equiv_pos_as_xyz
   "x, y, z"

loop_
   _atom_site_label
   _atom_site_occupancy
   _atom_site_fract_x
   _atom_site_fract_y
   _atom_site_fract_z
   _atom_site_adp_type
   _atom_site_B_iso_or_equiv
   _atom_site_type_symbol
    H   1.0     0.454688     0.019243     0.697391  Biso 1.000000     H
    H   1.0     0.454705     0.519216     0.697380  Biso 1.000000     H
    H   1.0     0.954731     0.019218     0.697407  Biso 1.000000     H
    H   1.0     0.954708     0.519221     0.697395  Biso 1.000000     H
    H   1.0     0.473174     0.311460     0.610359  Biso 1.000000     H
    H   1.0     0.473014     0.811515     0.610164  Biso 1.000000     H
    H   1.0     0.973103     0.311479     0.610283  Biso 1.000000     H
    H   1.0     0.973054     0.811479     0.610232  Biso 1.000000     H
    H   1.0     0.398728     0.291477     0.714463  Biso 1.000000     H
    H   1.0     0.398523     0.791519     0.714211  Biso 1.000000     H
    H   1.0     0.898645     0.291492     0.714372  Biso 1.000000     H
    H   1.0     0.898553     0.791506     0.714279  Biso 1.000000     H
    H   1.0     0.355715     0.388150     0.804732  Biso 1.000000     H
    H   1.0     0.355569     0.888172     0.804563  Biso 1.000000     H
    H   1.0     0.855664     0.388157     0.804681  Biso 1.000000     H
    H   1.0     0.855587     0.888175     0.804595  Biso 1.000000     H
    H   1.0     0.473963     0.365010     0.485951  Biso 1.000000     H
    H   1.0     0.473925     0.865057     0.485882  Biso 1.000000     H
    H   1.0     0.973948     0.365025     0.485928  Biso 1.000000     H
    H   1.0     0.973938     0.865033     0.485913  Biso 1.000000     H
    H   1.0     0.065348     0.007382     0.669944  Biso 1.000000     H
    H   1.0     0.065329     0.507407     0.669940  Biso 1.000000     H
    H   1.0     0.565293     0.007441     0.669909  Biso 1.000000     H
    H   1.0     0.565361     0.507397     0.669948  Biso 1.000000     H
    H   1.0     0.123408     0.470171     0.425113  Biso 1.000000     H
    H   1.0     0.123427     0.970146     0.425114  Biso 1.000000     H
    H   1.0     0.623409     0.470170     0.425105  Biso 1.000000     H
    H   1.0     0.623420     0.970182     0.425102  Biso 1.000000     H
    H   1.0     0.177159     0.023861     0.696327  Biso 1.000000     H
    H   1.0     0.177144     0.523871     0.696323  Biso 1.000000     H
    H   1.0     0.677115     0.023915     0.696313  Biso 1.000000     H
    H   1.0     0.677165     0.523866     0.696315  Biso 1.000000     H
    H   1.0     0.140060     0.081981     0.451504  Biso 1.000000     H
    H   1.0     0.140042     0.582015     0.451512  Biso 1.000000     H
    H   1.0     0.640039     0.082023     0.451483  Biso 1.000000     H
    H   1.0     0.640056     0.582008     0.451504  Biso 1.000000     H
    H   1.0     0.282362     0.173351     0.635536  Biso 1.000000     H
    H   1.0     0.282359     0.673358     0.635548  Biso 1.000000     H
    H   1.0     0.782375     0.173356     0.635501  Biso 1.000000     H
    H   1.0     0.782373     0.673356     0.635535  Biso 1.000000     H
    H   1.0     0.128209     0.192517     0.424062  Biso 1.000000     H
    H   1.0     0.128203     0.692549     0.424080  Biso 1.000000     H
    H   1.0     0.628212     0.192563     0.424063  Biso 1.000000     H
    H   1.0     0.628212     0.692538     0.424067  Biso 1.000000     H
    H   1.0     0.335785     0.174483     0.511217  Biso 1.000000     H
    H   1.0     0.335777     0.674501     0.511234  Biso 1.000000     H
    H   1.0     0.835801     0.174433     0.511122  Biso 1.000000     H
    H   1.0     0.835787     0.674509     0.511228  Biso 1.000000     H
    H   1.0     0.355602     0.249134     0.407219  Biso 1.000000     H
    H   1.0     0.355600     0.749149     0.407234  Biso 1.000000     H
    H   1.0     0.855628     0.249028     0.407064  Biso 1.000000     H
    H   1.0     0.855602     0.749173     0.407242  Biso 1.000000     H
    H   1.0     0.258937     0.291994     0.316885  Biso 1.000000     H
    H   1.0     0.258938     0.792013     0.316900  Biso 1.000000     H
    H   1.0     0.758962     0.291909     0.316751  Biso 1.000000     H
    H   1.0     0.758935     0.792037     0.316913  Biso 1.000000     H
    H   1.0     0.019059     0.454611     0.197430  Biso 1.000000     H
    H   1.0     0.019061     0.954635     0.197443  Biso 1.000000     H
    H   1.0     0.519073     0.454625     0.197459  Biso 1.000000     H
    H   1.0     0.519066     0.954616     0.197403  Biso 1.000000     H
    H   1.0     0.311520     0.472561     0.110156  Biso 1.000000     H
    H   1.0     0.311485     0.972721     0.110294  Biso 1.000000     H
    H   1.0     0.811495     0.472648     0.110258  Biso 1.000000     H
    H   1.0     0.811512     0.972577     0.110163  Biso 1.000000     H
    H   1.0     0.291691     0.397884     0.214119  Biso 1.000000     H
    H   1.0     0.291656     0.898085     0.214307  Biso 1.000000     H
    H   1.0     0.791671     0.397998     0.214255  Biso 1.000000     H
    H   1.0     0.791688     0.897902     0.214131  Biso 1.000000     H
    H   1.0     0.388338     0.355071     0.304520  Biso 1.000000     H
    H   1.0     0.388316     0.855206     0.304630  Biso 1.000000     H
    H   1.0     0.888329     0.355147     0.304605  Biso 1.000000     H
    H   1.0     0.888339     0.855085     0.304521  Biso 1.000000     H
    H   1.0     0.364926     0.473805     0.985901  Biso 1.000000     H
    H   1.0     0.364909     0.973826     0.985925  Biso 1.000000     H
    H   1.0     0.864908     0.473819     0.985927  Biso 1.000000     H
    H   1.0     0.864926     0.973801     0.985890  Biso 1.000000     H
    H   1.0     0.007222     0.065132     0.169974  Biso 1.000000     H
    H   1.0     0.007228     0.565133     0.169998  Biso 1.000000     H
    H   1.0     0.507226     0.065172     0.169980  Biso 1.000000     H
    H   1.0     0.507256     0.565105     0.169982  Biso 1.000000     H
    H   1.0     0.470125     0.123308     0.925134  Biso 1.000000     H
    H   1.0     0.470131     0.623317     0.925175  Biso 1.000000     H
    H   1.0     0.970106     0.123331     0.925160  Biso 1.000000     H
    H   1.0     0.970122     0.623316     0.925176  Biso 1.000000     H
    H   1.0     0.023835     0.176993     0.196397  Biso 1.000000     H
    H   1.0     0.023844     0.676993     0.196409  Biso 1.000000     H
    H   1.0     0.523831     0.177023     0.196367  Biso 1.000000     H
    H   1.0     0.523866     0.676972     0.196406  Biso 1.000000     H
    H   1.0     0.081923     0.139782     0.951543  Biso 1.000000     H
    H   1.0     0.081944     0.639762     0.951561  Biso 1.000000     H
    H   1.0     0.581948     0.139780     0.951529  Biso 1.000000     H
    H   1.0     0.581968     0.639749     0.951559  Biso 1.000000     H
    H   1.0     0.173311     0.282142     0.135609  Biso 1.000000     H
    H   1.0     0.173329     0.782129     0.135620  Biso 1.000000     H
    H   1.0     0.673302     0.282175     0.135579  Biso 1.000000     H
    H   1.0     0.673342     0.782121     0.135621  Biso 1.000000     H
    H   1.0     0.192526     0.127973     0.924058  Biso 1.000000     H
    H   1.0     0.192537     0.627956     0.924062  Biso 1.000000     H
    H   1.0     0.692525     0.127984     0.924031  Biso 1.000000     H
    H   1.0     0.692547     0.627955     0.924049  Biso 1.000000     H
    H   1.0     0.174219     0.335692     0.011322  Biso 1.000000     H
    H   1.0     0.174251     0.835672     0.011352  Biso 1.000000     H
    H   1.0     0.674258     0.335702     0.011317  Biso 1.000000     H
    H   1.0     0.674270     0.835668     0.011361  Biso 1.000000     H
    H   1.0     0.248709     0.355688     0.907240  Biso 1.000000     H
    H   1.0     0.248750     0.855669     0.907281  Biso 1.000000     H
    H   1.0     0.748767     0.355687     0.907254  Biso 1.000000     H
    H   1.0     0.748763     0.855670     0.907286  Biso 1.000000     H
    H   1.0     0.291657     0.259036     0.816886  Biso 1.000000     H
    H   1.0     0.291690     0.759018     0.816916  Biso 1.000000     H
    H   1.0     0.791706     0.259030     0.816897  Biso 1.000000     H
    H   1.0     0.791699     0.759023     0.816911  Biso 1.000000     H
    C   1.0     0.444677     0.467671     0.699704  Biso 1.000000     C
    C   1.0     0.444629     0.967697     0.699663  Biso 1.000000     C
    C   1.0     0.944663     0.467678     0.699698  Biso 1.000000     C
    C   1.0     0.944667     0.967674     0.699689  Biso 1.000000     C
    C   1.0     0.470531     0.417256     0.645732  Biso 1.000000     C
    C   1.0     0.470448     0.917298     0.645641  Biso 1.000000     C
    C   1.0     0.970500     0.417268     0.645704  Biso 1.000000     C
    C   1.0     0.970490     0.917265     0.645684  Biso 1.000000     C
    C   1.0     0.453404     0.352483     0.650324  Biso 1.000000     C
    C   1.0     0.453273     0.852529     0.650167  Biso 1.000000     C
    C   1.0     0.953349     0.352498     0.650268  Biso 1.000000     C
    C   1.0     0.953310     0.852500     0.650223  Biso 1.000000     C
    C   1.0     0.412032     0.341319     0.708047  Biso 1.000000     C
    C   1.0     0.411869     0.841359     0.707851  Biso 1.000000     C
    C   1.0     0.911966     0.341333     0.707979  Biso 1.000000     C
    C   1.0     0.911901     0.841342     0.707907  Biso 1.000000     C
    C   1.0     0.388756     0.394493     0.759345  Biso 1.000000     C
    C   1.0     0.388630     0.894518     0.759199  Biso 1.000000     C
    C   1.0     0.888712     0.394502     0.759301  Biso 1.000000     C
    C   1.0     0.888656     0.894511     0.759236  Biso 1.000000     C
    C   1.0     0.509441     0.402527     0.506561  Biso 1.000000     C
    C   1.0     0.509406     0.902567     0.506508  Biso 1.000000     C
    C   1.0     0.000000     0.402538     0.506546  Biso 1.000000     C
    C   1.0     0.000000     0.902536     0.506536  Biso 1.000000     C
    C   1.0     0.014190     0.433627     0.586658  Biso 1.000000     C
    C   1.0     0.014199     0.933614     0.586653  Biso 1.000000     C
    C   1.0     0.514220     0.433615     0.586674  Biso 1.000000     C
    C   1.0     0.514170     0.933655     0.586621  Biso 1.000000     C
    C   1.0     0.060500     0.481806     0.608255  Biso 1.000000     C
    C   1.0     0.060516     0.981786     0.608254  Biso 1.000000     C
    C   1.0     0.560525     0.481799     0.608261  Biso 1.000000     C
    C   1.0     0.560471     0.981843     0.608220  Biso 1.000000     C
    C   1.0     0.100518    -0.003124     0.550471  Biso 1.000000     C
    C   1.0     0.100498     0.496902     0.550468  Biso 1.000000     C
    C   1.0     0.600488    -0.003078     0.550448  Biso 1.000000     C
    C   1.0     0.600519     0.496892     0.550468  Biso 1.000000     C
    C   1.0     0.092307     0.462489     0.472171  Biso 1.000000     C
    C   1.0     0.092320     0.962469     0.472169  Biso 1.000000     C
    C   1.0     0.592313     0.462486     0.472168  Biso 1.000000     C
    C   1.0     0.592304     0.962507     0.472149  Biso 1.000000     C
    C   1.0     0.184862     0.054986     0.649279  Biso 1.000000     C
    C   1.0     0.184849     0.555001     0.649281  Biso 1.000000     C
    C   1.0     0.684829     0.055032     0.649261  Biso 1.000000     C
    C   1.0     0.684868     0.554996     0.649272  Biso 1.000000     C
    C   1.0     0.150498     0.046781     0.570974  Biso 1.000000     C
    C   1.0     0.150483     0.546801     0.570976  Biso 1.000000     C
    C   1.0     0.650464     0.046831     0.570956  Biso 1.000000     C
    C   1.0     0.650501     0.546795     0.570968  Biso 1.000000     C
    C   1.0     0.165608     0.086812     0.513204  Biso 1.000000     C
    C   1.0     0.165589     0.586841     0.513213  Biso 1.000000     C
    C   1.0     0.665593     0.086846     0.513180  Biso 1.000000     C
    C   1.0     0.665606     0.586833     0.513203  Biso 1.000000     C
    C   1.0     0.213784     0.133121     0.534797  Biso 1.000000     C
    C   1.0     0.213773     0.633142     0.534807  Biso 1.000000     C
    C   1.0     0.713779     0.133145     0.534771  Biso 1.000000     C
    C   1.0     0.713788     0.633136     0.534797  Biso 1.000000     C
    C   1.0     0.244859     0.137865     0.614902  Biso 1.000000     C
    C   1.0     0.244851     0.637878     0.614911  Biso 1.000000     C
    C   1.0     0.744857     0.137884     0.614875  Biso 1.000000     C
    C   1.0     0.744866     0.637875     0.614901  Biso 1.000000     C
    C   1.0     0.179683     0.202675     0.421783  Biso 1.000000     C
    C   1.0     0.179678     0.702702     0.421799  Biso 1.000000     C
    C   1.0     0.679690     0.202690     0.421753  Biso 1.000000     C
    C   1.0     0.679685     0.702699     0.421792  Biso 1.000000     C
    C   1.0     0.230096     0.176882     0.475766  Biso 1.000000     C
    C   1.0     0.230088     0.676910     0.475787  Biso 1.000000     C
    C   1.0     0.730106     0.176881     0.475720  Biso 1.000000     C
    C   1.0     0.730098     0.676906     0.475775  Biso 1.000000     C
    C   1.0     0.294766     0.194196     0.471237  Biso 1.000000     C
    C   1.0     0.294760     0.694212     0.471250  Biso 1.000000     C
    C   1.0     0.794782     0.194157     0.471152  Biso 1.000000     C
    C   1.0     0.794768     0.694221     0.471248  Biso 1.000000     C
    C   1.0     0.305834     0.235678     0.413558  Biso 1.000000     C
    C   1.0     0.305831     0.735699     0.413578  Biso 1.000000     C
    C   1.0     0.805855     0.235607     0.413439  Biso 1.000000     C
    C   1.0     0.805835     0.735713     0.413579  Biso 1.000000     C
    C   1.0     0.252669     0.258866     0.362232  Biso 1.000000     C
    C   1.0     0.252668     0.758886     0.362248  Biso 1.000000     C
    C   1.0     0.752687     0.258808     0.362126  Biso 1.000000     C
    C   1.0     0.752669     0.758902     0.362254  Biso 1.000000     C
    C   1.0     0.467600     0.444444     0.199699  Biso 1.000000     C
    C   1.0     0.467589     0.944477     0.199695  Biso 1.000000     C
    C   1.0     0.967592     0.444458     0.199708  Biso 1.000000     C
    C   1.0     0.967596     0.944455     0.199688  Biso 1.000000     C
    C   1.0     0.417199     0.470214     0.145682  Biso 1.000000     C
    C   1.0     0.417178     0.970284     0.145721  Biso 1.000000     C
    C   1.0     0.917184     0.470246     0.145715  Biso 1.000000     C
    C   1.0     0.917191     0.970229     0.145679  Biso 1.000000     C
    C   1.0     0.352532     0.452868     0.150163  Biso 1.000000     C
    C   1.0     0.352502     0.952996     0.150266  Biso 1.000000     C
    C   1.0     0.852511     0.452938     0.150244  Biso 1.000000     C
    C   1.0     0.852525     0.952880     0.150164  Biso 1.000000     C
    C   1.0     0.341456     0.411369     0.207820  Biso 1.000000     C
    C   1.0     0.341427     0.911524     0.207954  Biso 1.000000     C
    C   1.0     0.841439     0.411452     0.207917  Biso 1.000000     C
    C   1.0     0.841453     0.911385     0.207826  Biso 1.000000     C
    C   1.0     0.394610     0.388207     0.259184  Biso 1.000000     C
    C   1.0     0.394590     0.888322     0.259272  Biso 1.000000     C
    C   1.0     0.894600     0.388271     0.259255  Biso 1.000000     C
    C   1.0     0.894609     0.888221     0.259184  Biso 1.000000     C
    C   1.0     0.402434     0.509282     0.000000  Biso 1.000000     C
    C   1.0     0.402420     0.000000     0.000000  Biso 1.000000     C
    C   1.0     0.902419     0.509296     0.000000  Biso 1.000000     C
    C   1.0     0.902428     0.000000     0.000000  Biso 1.000000     C
    C   1.0     0.433492     0.014044     0.086689  Biso 1.000000     C
    C   1.0     0.433515     0.513996     0.086679  Biso 1.000000     C
    C   1.0     0.933500     0.014009     0.086668  Biso 1.000000     C
    C   1.0     0.933498     0.514019     0.086699  Biso 1.000000     C
    C   1.0     0.481677     0.060344     0.108280  Biso 1.000000     C
    C   1.0     0.481703     0.560292     0.108284  Biso 1.000000     C
    C   1.0     0.981672     0.060320     0.108279  Biso 1.000000     C
    C   1.0     0.981685     0.560316     0.108298  Biso 1.000000     C
    C   1.0    -0.003227     0.100366     0.050524  Biso 1.000000     C
    C   1.0    -0.003220     0.600365     0.050544  Biso 1.000000     C
    C   1.0     0.496783     0.100381     0.050514  Biso 1.000000     C
    C   1.0     0.496803     0.600349     0.050537  Biso 1.000000     C
    C   1.0     0.462420     0.092180     0.972179  Biso 1.000000     C
    C   1.0     0.462432     0.592172     0.972204  Biso 1.000000     C
    C   1.0     0.962409     0.092189     0.972193  Biso 1.000000     C
    C   1.0     0.962420     0.592179     0.972211  Biso 1.000000     C
    C   1.0     0.054941     0.184679     0.149345  Biso 1.000000     C
    C   1.0     0.054952     0.684674     0.149356  Biso 1.000000     C
    C   1.0     0.554940     0.184705     0.149316  Biso 1.000000     C
    C   1.0     0.554974     0.684655     0.149355  Biso 1.000000     C
    C   1.0     0.046745     0.150278     0.071042  Biso 1.000000     C
    C   1.0     0.046765     0.650263     0.071058  Biso 1.000000     C
    C   1.0     0.546760     0.150289     0.071020  Biso 1.000000     C
    C   1.0     0.546787     0.650248     0.071054  Biso 1.000000     C
    C   1.0     0.086756     0.165367     0.013265  Biso 1.000000     C
    C   1.0     0.086770     0.665357     0.013277  Biso 1.000000     C
    C   1.0     0.586768     0.165381     0.013242  Biso 1.000000     C
    C   1.0     0.586793     0.665345     0.013275  Biso 1.000000     C
    C   1.0     0.133061     0.213551     0.034866  Biso 1.000000     C
    C   1.0     0.133083     0.713533     0.034882  Biso 1.000000     C
    C   1.0     0.633071     0.213567     0.034844  Biso 1.000000     C
    C   1.0     0.633100     0.713526     0.034881  Biso 1.000000     C
    C   1.0     0.137829     0.244632     0.114982  Biso 1.000000     C
    C   1.0     0.137846     0.744620     0.114995  Biso 1.000000     C
    C   1.0     0.637828     0.244658     0.114955  Biso 1.000000     C
    C   1.0     0.637863     0.744608     0.114996  Biso 1.000000     C
    C   1.0     0.202595     0.179513     0.921788  Biso 1.000000     C
    C   1.0     0.202612     0.679497     0.921801  Biso 1.000000     C
    C   1.0     0.702606     0.179522     0.921770  Biso 1.000000     C
    C   1.0     0.702624     0.679496     0.921794  Biso 1.000000     C
    C   1.0     0.176778     0.229913     0.975811  Biso 1.000000     C
    C   1.0     0.176796     0.729897     0.975823  Biso 1.000000     C
    C   1.0     0.676794     0.229925     0.975793  Biso 1.000000     C
    C   1.0     0.676812     0.729893     0.975823  Biso 1.000000     C
    C   1.0     0.193958     0.294681     0.971287  Biso 1.000000     C
    C   1.0     0.193990     0.794663     0.971316  Biso 1.000000     C
    C   1.0     0.693992     0.294689     0.971280  Biso 1.000000     C
    C   1.0     0.694007     0.794659     0.971321  Biso 1.000000     C
    C   1.0     0.235360     0.305850     0.913600  Biso 1.000000     C
    C   1.0     0.235393     0.805831     0.913629  Biso 1.000000     C
    C   1.0     0.735407     0.305851     0.913605  Biso 1.000000     C
    C   1.0     0.735406     0.805831     0.913632  Biso 1.000000     C
    C   1.0     0.258597     0.252690     0.862251  Biso 1.000000     C
    C   1.0     0.258627     0.752672     0.862277  Biso 1.000000     C
    C   1.0     0.758636     0.252689     0.862253  Biso 1.000000     C
    C   1.0     0.758637     0.752675     0.862273  Biso 1.000000     C
    N   1.0     0.404685     0.457303     0.755775  Biso 1.000000     N
    N   1.0     0.404614     0.957321     0.755706  Biso 1.000000     N
    N   1.0     0.904662     0.457308     0.755758  Biso 1.000000     N
    N   1.0     0.904643     0.957311     0.755727  Biso 1.000000     N
    N   1.0     0.047448     0.416513     0.449971  Biso 1.000000     N
    N   1.0     0.047451     0.916505     0.449963  Biso 1.000000     N
    N   1.0     0.547456     0.416507     0.449976  Biso 1.000000     N
    N   1.0     0.547440     0.916537     0.449941  Biso 1.000000     N
    N   1.0     0.230860     0.099822     0.671474  Biso 1.000000     N
    N   1.0     0.230850     0.599833     0.671480  Biso 1.000000     N
    N   1.0     0.730843     0.099853     0.671452  Biso 1.000000     N
    N   1.0     0.730866     0.599830     0.671471  Biso 1.000000     N
    N   1.0     0.189961     0.242735     0.365720  Biso 1.000000     N
    N   1.0     0.189959     0.742762     0.365737  Biso 1.000000     N
    N   1.0     0.689972     0.242723     0.365663  Biso 1.000000     N
    N   1.0     0.689963     0.742767     0.365737  Biso 1.000000     N
    N   1.0     0.457312     0.404378     0.255752  Biso 1.000000     N
    N   1.0     0.457302     0.904435     0.255773  Biso 1.000000     N
    N   1.0     0.957309     0.404402     0.255773  Biso 1.000000     N
    N   1.0     0.957313     0.904385     0.255738  Biso 1.000000     N
    N   1.0     0.416414     0.047353     0.949986  Biso 1.000000     N
    N   1.0     0.416428     0.547345     0.949995  Biso 1.000000     N
    N   1.0     0.916412     0.047354     0.949982  Biso 1.000000     N
    N   1.0     0.916417     0.547349     0.950007  Biso 1.000000     N
    N   1.0     0.099800     0.230655     0.171552  Biso 1.000000     N
    N   1.0     0.099809     0.730651     0.171562  Biso 1.000000     N
    N   1.0     0.599793     0.230686     0.171522  Biso 1.000000     N
    N   1.0     0.599829     0.730635     0.171563  Biso 1.000000     N
    N   1.0     0.242610     0.189888     0.865745  Biso 1.000000     N
    N   1.0     0.242631     0.689872     0.865763  Biso 1.000000     N
    N   1.0     0.742633     0.189891     0.865739  Biso 1.000000     N
    N   1.0     0.742640     0.689874     0.865754  Biso 1.000000     N
   Cu   1.0     0.372490     0.033208     0.833632  Biso 1.000000    Cu
   Cu   1.0     0.372503     0.533210     0.833633  Biso 1.000000    Cu
   Cu   1.0     0.872495     0.033213     0.833624  Biso 1.000000    Cu
   Cu   1.0     0.872504     0.533207     0.833641  Biso 1.000000    Cu
   Cu   1.0     0.274746     0.114003     0.787842  Biso 1.000000    Cu
   Cu   1.0     0.274752     0.613995     0.787840  Biso 1.000000    Cu
   Cu   1.0     0.774751     0.114006     0.787820  Biso 1.000000    Cu
   Cu   1.0     0.774763     0.613996     0.787834  Biso 1.000000    Cu
   Cu   1.0     0.033236     0.372467     0.333670  Biso 1.000000    Cu
   Cu   1.0     0.033233     0.872467     0.333662  Biso 1.000000    Cu
   Cu   1.0     0.533239     0.372463     0.333675  Biso 1.000000    Cu
   Cu   1.0     0.533243     0.872470     0.333650  Biso 1.000000    Cu
   Cu   1.0     0.114008     0.274714     0.287855  Biso 1.000000    Cu
   Cu   1.0     0.114010     0.774719     0.287856  Biso 1.000000    Cu
   Cu   1.0     0.614010     0.274724     0.287834  Biso 1.000000    Cu
   Cu   1.0     0.614015     0.774719     0.287851  Biso 1.000000    Cu
    I   1.0     0.398156     0.144865     0.766525  Biso 1.000000     I
    I   1.0     0.398165     0.644849     0.766514  Biso 1.000000     I
    I   1.0     0.898164     0.144851     0.766496  Biso 1.000000     I
    I   1.0     0.898175     0.644850     0.766522  Biso 1.000000     I
    I   1.0     0.249093     0.002349     0.854978  Biso 1.000000     I
    I   1.0     0.249116     0.502325     0.854954  Biso 1.000000     I
    I   1.0     0.749093     0.002351     0.854939  Biso 1.000000     I
    I   1.0     0.749109     0.502331     0.854953  Biso 1.000000     I
    I   1.0     0.144712     0.398227     0.266379  Biso 1.000000     I
    I   1.0     0.144707     0.898235     0.266367  Biso 1.000000     I
    I   1.0     0.644721     0.398241     0.266391  Biso 1.000000     I
    I   1.0     0.644712     0.898232     0.266352  Biso 1.000000     I
    I   1.0     0.002559     0.248932     0.355156  Biso 1.000000     I
    I   1.0     0.002555     0.748933     0.355153  Biso 1.000000     I
    I   1.0     0.502570     0.248925     0.355149  Biso 1.000000     I
    I   1.0     0.502552     0.748950     0.355138  Biso 1.000000     I
