#======================================================================

# CRYSTAL DATA

#----------------------------------------------------------------------

data_VESTA_phase_1


_pd_phase_name                         MOF
_cell_length_a                         15.27800
_cell_length_b                         12.82400
_cell_length_c                         12.92900
_cell_angle_alpha                      99.35800
_cell_angle_beta                       94.62600
_cell_angle_gamma                      85.50600
_symmetry_space_group_name_H-M         "P 1"
_symmetry_Int_Tables_number            1

loop_
_symmetry_equiv_pos_as_xyz
   "x, y, z"

loop_
   _atom_site_label
   _atom_site_occupancy
   _atom_site_fract_x
   _atom_site_fract_y
   _atom_site_fract_z
   _atom_site_adp_type
   _atom_site_B_iso_or_equiv
   _atom_site_type_symbol
    H   1.0     0.347735     0.464134     0.048518  Biso 1.000000     H
    H   1.0     0.847725     0.464135     0.048515  Biso 1.000000     H
    H   1.0     0.107163     0.448268     0.203765  Biso 1.000000     H
    H   1.0     0.607152     0.448268     0.203767  Biso 1.000000     H
    H   1.0     0.033175     0.202429     0.949249  Biso 1.000000     H
    H   1.0     0.533165     0.202430     0.949250  Biso 1.000000     H
    H   1.0     0.245208     0.369470     0.140973  Biso 1.000000     H
    H   1.0     0.745198     0.369472     0.140974  Biso 1.000000     H
    H   1.0     0.205132     0.304201     0.238139  Biso 1.000000     H
    H   1.0     0.705122     0.304201     0.238138  Biso 1.000000     H
    H   1.0     0.248473     0.119603     0.003549  Biso 1.000000     H
    H   1.0     0.748462     0.119603     0.003549  Biso 1.000000     H
    H   1.0     0.402435     0.050685     0.465723  Biso 1.000000     H
    H   1.0     0.902425     0.050686     0.465722  Biso 1.000000     H
    H   1.0     0.142415     0.204636     0.449176  Biso 1.000000     H
    H   1.0     0.642405     0.204636     0.449176  Biso 1.000000     H
    H   1.0     0.218352     0.951290     0.203632  Biso 1.000000     H
    H   1.0     0.718342     0.951290     0.203632  Biso 1.000000     H
    H   1.0     0.004884     0.140649     0.368851  Biso 1.000000     H
    H   1.0     0.504874     0.140649     0.368851  Biso 1.000000     H
    H   1.0     0.044843     0.239878     0.305626  Biso 1.000000     H
    H   1.0     0.544832     0.239878     0.305626  Biso 1.000000     H
    H   1.0     0.503016     0.002953     0.121609  Biso 1.000000     H
    H   1.0     0.000000     0.002953     0.121609  Biso 1.000000     H
    H   1.0     0.152263     0.535845     0.951451  Biso 1.000000     H
    H   1.0     0.652253     0.535845     0.951447  Biso 1.000000     H
    H   1.0     0.392836     0.551717     0.796198  Biso 1.000000     H
    H   1.0     0.892825     0.551717     0.796201  Biso 1.000000     H
    H   1.0     0.466825     0.797551     0.050719  Biso 1.000000     H
    H   1.0     0.966815     0.797553     0.050719  Biso 1.000000     H
    H   1.0     0.254793     0.630515     0.858991  Biso 1.000000     H
    H   1.0     0.754783     0.630517     0.858991  Biso 1.000000     H
    H   1.0     0.294869     0.695788     0.761828  Biso 1.000000     H
    H   1.0     0.794859     0.695789     0.761828  Biso 1.000000     H
    H   1.0     0.251528     0.880385     0.996417  Biso 1.000000     H
    H   1.0     0.751517     0.880386     0.996417  Biso 1.000000     H
    H   1.0     0.097565     0.949297     0.534242  Biso 1.000000     H
    H   1.0     0.597555     0.949297     0.534241  Biso 1.000000     H
    H   1.0     0.357583     0.795343     0.550794  Biso 1.000000     H
    H   1.0     0.857573     0.795343     0.550794  Biso 1.000000     H
    H   1.0     0.281645     0.048691     0.796336  Biso 1.000000     H
    H   1.0     0.781634     0.048691     0.796336  Biso 1.000000     H
    H   1.0     0.495114     0.859339     0.631118  Biso 1.000000     H
    H   1.0     0.995103     0.859339     0.631118  Biso 1.000000     H
    H   1.0     0.455160     0.760105     0.694339  Biso 1.000000     H
    H   1.0     0.955149     0.760105     0.694339  Biso 1.000000     H
    H   1.0    -0.003016     0.997033     0.878358  Biso 1.000000     H
    H   1.0     0.496973     0.997033     0.878358  Biso 1.000000     H
    H   1.0     0.376023     0.986517     0.988450  Biso 1.000000     H
    H   1.0     0.876013     0.986517     0.988450  Biso 1.000000     H
    H   1.0     0.375122     0.286070     0.284857  Biso 1.000000     H
    H   1.0     0.875112     0.286070     0.284857  Biso 1.000000     H
    H   1.0     0.123977     0.013471     0.011516  Biso 1.000000     H
    H   1.0     0.623966     0.013471     0.011515  Biso 1.000000     H
    H   1.0     0.124878     0.713915     0.715112  Biso 1.000000     H
    H   1.0     0.624868     0.713915     0.715112  Biso 1.000000     H
    C   1.0     0.433313     0.328738     0.989157  Biso 1.000000     C
    C   1.0     0.933303     0.328739     0.989155  Biso 1.000000     C
    C   1.0     0.411938     0.422423     0.057344  Biso 1.000000     C
    C   1.0     0.911927     0.422423     0.057342  Biso 1.000000     C
    C   1.0     0.474724     0.464011     0.134267  Biso 1.000000     C
    C   1.0     0.974713     0.464011     0.134265  Biso 1.000000     C
    C   1.0     0.058925     0.412296     0.144928  Biso 1.000000     C
    C   1.0     0.558914     0.412295     0.144930  Biso 1.000000     C
    C   1.0     0.078414     0.316480     0.079511  Biso 1.000000     C
    C   1.0     0.578403     0.316481     0.079511  Biso 1.000000     C
    C   1.0     0.015791     0.275503     0.000000  Biso 1.000000     C
    C   1.0     0.515780     0.275503     0.000000  Biso 1.000000     C
    C   1.0     0.369591     0.287465     0.901698  Biso 1.000000     C
    C   1.0     0.869582     0.287468     0.901695  Biso 1.000000     C
    C   1.0     0.226342     0.292560     0.157111  Biso 1.000000     C
    C   1.0     0.726332     0.292561     0.157111  Biso 1.000000     C
    C   1.0     0.303069     0.210773     0.145691  Biso 1.000000     C
    C   1.0     0.803058     0.210774     0.145690  Biso 1.000000     C
    C   1.0     0.304025     0.126620     0.061803  Biso 1.000000     C
    C   1.0     0.804014     0.126620     0.061802  Biso 1.000000     C
    C   1.0     0.451385     0.567173     0.202236  Biso 1.000000     C
    C   1.0     0.951374     0.567175     0.202231  Biso 1.000000     C
    C   1.0     0.317601     0.991271     0.330110  Biso 1.000000     C
    C   1.0     0.817591     0.991271     0.330109  Biso 1.000000     C
    C   1.0     0.338367     0.059306     0.423813  Biso 1.000000     C
    C   1.0     0.838356     0.059306     0.423812  Biso 1.000000     C
    C   1.0     0.275083     0.135759     0.465230  Biso 1.000000     C
    C   1.0     0.775073     0.135759     0.465229  Biso 1.000000     C
    C   1.0     0.191032     0.146182     0.413349  Biso 1.000000     C
    C   1.0     0.691021     0.146182     0.413349  Biso 1.000000     C
    C   1.0     0.172162     0.080912     0.317616  Biso 1.000000     C
    C   1.0     0.672152     0.080912     0.317615  Biso 1.000000     C
    C   1.0     0.235279     0.000000     0.276745  Biso 1.000000     C
    C   1.0     0.735269     0.000000     0.276745  Biso 1.000000     C
    C   1.0     0.381739     0.904097     0.289063  Biso 1.000000     C
    C   1.0     0.881728     0.904096     0.289063  Biso 1.000000     C
    C   1.0     0.024016     0.157910     0.293096  Biso 1.000000     C
    C   1.0     0.524006     0.157910     0.293096  Biso 1.000000     C
    C   1.0     0.447715     0.146075     0.211166  Biso 1.000000     C
    C   1.0     0.947704     0.146075     0.211166  Biso 1.000000     C
    C   1.0     0.447316     0.061327     0.127852  Biso 1.000000     C
    C   1.0     0.947305     0.061327     0.127852  Biso 1.000000     C
    C   1.0     0.297862     0.203354     0.568368  Biso 1.000000     C
    C   1.0     0.797851     0.203354     0.568367  Biso 1.000000     C
    C   1.0     0.066686     0.671242     0.010812  Biso 1.000000     C
    C   1.0     0.566676     0.671242     0.010810  Biso 1.000000     C
    C   1.0     0.088061     0.577558     0.942624  Biso 1.000000     C
    C   1.0     0.588051     0.577558     0.942622  Biso 1.000000     C
    C   1.0     0.025275     0.535970     0.865702  Biso 1.000000     C
    C   1.0     0.525265     0.535971     0.865699  Biso 1.000000     C
    C   1.0     0.441074     0.587687     0.855038  Biso 1.000000     C
    C   1.0     0.941063     0.587687     0.855039  Biso 1.000000     C
    C   1.0     0.421587     0.683503     0.920455  Biso 1.000000     C
    C   1.0     0.921576     0.683504     0.920457  Biso 1.000000     C
    C   1.0     0.484209     0.724477    -0.001097  Biso 1.000000     C
    C   1.0     0.984199     0.724479    -0.001097  Biso 1.000000     C
    C   1.0     0.130407     0.712512     0.098273  Biso 1.000000     C
    C   1.0     0.630396     0.712510     0.098273  Biso 1.000000     C
    C   1.0     0.273659     0.707427     0.842856  Biso 1.000000     C
    C   1.0     0.773649     0.707428     0.842856  Biso 1.000000     C
    C   1.0     0.196932     0.789213     0.854277  Biso 1.000000     C
    C   1.0     0.696921     0.789214     0.854277  Biso 1.000000     C
    C   1.0     0.195976     0.873367     0.938164  Biso 1.000000     C
    C   1.0     0.695965     0.873368     0.938164  Biso 1.000000     C
    C   1.0     0.048613     0.432805     0.797737  Biso 1.000000     C
    C   1.0     0.548603     0.432805     0.797737  Biso 1.000000     C
    C   1.0     0.182398     0.008710     0.669856  Biso 1.000000     C
    C   1.0     0.682387     0.008710     0.669856  Biso 1.000000     C
    C   1.0     0.161633     0.940675     0.576153  Biso 1.000000     C
    C   1.0     0.661622     0.940676     0.576153  Biso 1.000000     C
    C   1.0     0.224917     0.864222     0.534738  Biso 1.000000     C
    C   1.0     0.724906     0.864222     0.534738  Biso 1.000000     C
    C   1.0     0.308967     0.853798     0.586619  Biso 1.000000     C
    C   1.0     0.808957     0.853799     0.586619  Biso 1.000000     C
    C   1.0     0.327836     0.919069     0.682353  Biso 1.000000     C
    C   1.0     0.827825     0.919069     0.682353  Biso 1.000000     C
    C   1.0     0.264719    -0.002939     0.723222  Biso 1.000000     C
    C   1.0     0.764708    -0.002939     0.723222  Biso 1.000000     C
    C   1.0     0.118259     0.095883     0.710903  Biso 1.000000     C
    C   1.0     0.618248     0.095884     0.710902  Biso 1.000000     C
    C   1.0     0.475983     0.842074     0.706871  Biso 1.000000     C
    C   1.0     0.975973     0.842074     0.706872  Biso 1.000000     C
    C   1.0     0.052285     0.853910     0.788802  Biso 1.000000     C
    C   1.0     0.552275     0.853910     0.788801  Biso 1.000000     C
    C   1.0     0.052685     0.938659     0.872115  Biso 1.000000     C
    C   1.0     0.552674     0.938659     0.872115  Biso 1.000000     C
    C   1.0     0.202138     0.796625     0.431601  Biso 1.000000     C
    C   1.0     0.702127     0.796626     0.431600  Biso 1.000000     C
    C   1.0     0.375808     0.052303     0.053565  Biso 1.000000     C
    C   1.0     0.875797     0.052304     0.053565  Biso 1.000000     C
    C   1.0     0.375309     0.220129     0.219593  Biso 1.000000     C
    C   1.0     0.875299     0.220129     0.219593  Biso 1.000000     C
    C   1.0     0.124192     0.947683     0.946402  Biso 1.000000     C
    C   1.0     0.624181     0.947684     0.946401  Biso 1.000000     C
    C   1.0     0.124691     0.779856     0.780375  Biso 1.000000     C
    C   1.0     0.624680     0.779857     0.780375  Biso 1.000000     C
    O   1.0     0.292055     0.333228     0.898121  Biso 1.000000     O
    O   1.0     0.792044     0.333227     0.898121  Biso 1.000000     O
    O   1.0     0.392667     0.208942     0.832432  Biso 1.000000     O
    O   1.0     0.892656     0.208941     0.832432  Biso 1.000000     O
    O   1.0     0.370001     0.590714     0.212785  Biso 1.000000     O
    O   1.0     0.869991     0.590714     0.212785  Biso 1.000000     O
    O   1.0     0.015085     0.622193     0.244437  Biso 1.000000     O
    O   1.0     0.515074     0.622193     0.244436  Biso 1.000000     O
    O   1.0     0.155632     0.255918     0.084057  Biso 1.000000     O
    O   1.0     0.655622     0.255919     0.084057  Biso 1.000000     O
    O   1.0     0.459491     0.901424     0.334135  Biso 1.000000     O
    O   1.0     0.959480     0.901424     0.334135  Biso 1.000000     O
    O   1.0     0.358959     0.833677     0.211347  Biso 1.000000     O
    O   1.0     0.858948     0.833677     0.211347  Biso 1.000000     O
    O   1.0     0.379140     0.214347     0.592518  Biso 1.000000     O
    O   1.0     0.879129     0.214347     0.592517  Biso 1.000000     O
    O   1.0     0.233737     0.244561     0.622627  Biso 1.000000     O
    O   1.0     0.733726     0.244561     0.622627  Biso 1.000000     O
    O   1.0     0.095165     0.085189     0.256975  Biso 1.000000     O
    O   1.0     0.595155     0.085189     0.256975  Biso 1.000000     O
    O   1.0     0.207945     0.666750     0.101849  Biso 1.000000     O
    O   1.0     0.707934     0.666751     0.101848  Biso 1.000000     O
    O   1.0     0.107332     0.791038     0.167537  Biso 1.000000     O
    O   1.0     0.607321     0.791038     0.167535  Biso 1.000000     O
    O   1.0     0.129997     0.409265     0.787185  Biso 1.000000     O
    O   1.0     0.629986     0.409265     0.787183  Biso 1.000000     O
    O   1.0     0.484913     0.377786     0.755532  Biso 1.000000     O
    O   1.0     0.984902     0.377787     0.755533  Biso 1.000000     O
    O   1.0     0.344368     0.744066     0.915911  Biso 1.000000     O
    O   1.0     0.844358     0.744069     0.915911  Biso 1.000000     O
    O   1.0     0.040508     0.098557     0.665828  Biso 1.000000     O
    O   1.0     0.540497     0.098556     0.665828  Biso 1.000000     O
    O   1.0     0.141038     0.166303     0.788619  Biso 1.000000     O
    O   1.0     0.641028     0.166303     0.788619  Biso 1.000000     O
    O   1.0     0.120859     0.785635     0.407450  Biso 1.000000     O
    O   1.0     0.620849     0.785636     0.407449  Biso 1.000000     O
    O   1.0     0.266263     0.755417     0.377342  Biso 1.000000     O
    O   1.0     0.766252     0.755416     0.377342  Biso 1.000000     O
    O   1.0     0.404832     0.914790     0.742995  Biso 1.000000     O
    O   1.0     0.904821     0.914790     0.742995  Biso 1.000000     O
   Zn   1.0     0.215136     0.284046     0.773199  Biso 1.000000    Zn
   Zn   1.0     0.715126     0.284046     0.773199  Biso 1.000000    Zn
   Zn   1.0     0.033918     0.773767     0.284185  Biso 1.000000    Zn
   Zn   1.0     0.533908     0.773768     0.284184  Biso 1.000000    Zn
   Zn   1.0     0.284862     0.715933     0.226771  Biso 1.000000    Zn
   Zn   1.0     0.784852     0.715932     0.226770  Biso 1.000000    Zn
   Zn   1.0     0.466080     0.226212     0.715784  Biso 1.000000    Zn
   Zn   1.0     0.966069     0.226212     0.715784  Biso 1.000000    Zn
