#======================================================================

# CRYSTAL DATA

#----------------------------------------------------------------------

data_VESTA_phase_1


_pd_phase_name                         MOF
_cell_length_a                         17.80100
_cell_length_b                         20.34600
_cell_length_c                         19.91400
_cell_angle_alpha                      82.63300
_cell_angle_beta                       86.39600
_cell_angle_gamma                      88.72400
_symmetry_space_group_name_H-M         "P 1"
_symmetry_Int_Tables_number            1

loop_
_symmetry_equiv_pos_as_xyz
   "x, y, z"

loop_
   _atom_site_label
   _atom_site_occupancy
   _atom_site_fract_x
   _atom_site_fract_y
   _atom_site_fract_z
   _atom_site_adp_type
   _atom_site_B_iso_or_equiv
   _atom_site_type_symbol
    H   1.0     0.353378     0.258503     0.029462  Biso 1.000000     H
    H   1.0     0.353374     0.258503     0.529466  Biso 1.000000     H
    H   1.0     0.353376     0.758493     0.029463  Biso 1.000000     H
    H   1.0     0.353372     0.758493     0.529467  Biso 1.000000     H
    H   1.0     0.853391     0.258503     0.029462  Biso 1.000000     H
    H   1.0     0.853387     0.258503     0.529467  Biso 1.000000     H
    H   1.0     0.853388     0.758493     0.029462  Biso 1.000000     H
    H   1.0     0.853385     0.758493     0.529467  Biso 1.000000     H
    H   1.0     0.435162     0.292192     0.218041  Biso 1.000000     H
    H   1.0     0.435158     0.292193     0.718045  Biso 1.000000     H
    H   1.0     0.435159     0.792182     0.218041  Biso 1.000000     H
    H   1.0     0.435155     0.792183     0.718045  Biso 1.000000     H
    H   1.0     0.935175     0.292193     0.218041  Biso 1.000000     H
    H   1.0     0.935171     0.292194     0.718045  Biso 1.000000     H
    H   1.0     0.935172     0.792182     0.218041  Biso 1.000000     H
    H   1.0     0.935169     0.792184     0.718045  Biso 1.000000     H
    H   1.0     0.438226     0.477017     0.457395  Biso 1.000000     H
    H   1.0     0.438222     0.477017     0.957399  Biso 1.000000     H
    H   1.0     0.438223     0.977007     0.457395  Biso 1.000000     H
    H   1.0     0.438219     0.977007     0.957400  Biso 1.000000     H
    H   1.0     0.938240     0.477017     0.457394  Biso 1.000000     H
    H   1.0     0.938234     0.477017     0.957401  Biso 1.000000     H
    H   1.0     0.938239     0.977007     0.457392  Biso 1.000000     H
    H   1.0     0.938232     0.977007     0.957399  Biso 1.000000     H
    H   1.0     0.216943     0.317981     0.264282  Biso 1.000000     H
    H   1.0     0.216939     0.317981     0.764286  Biso 1.000000     H
    H   1.0     0.216938     0.817970     0.264284  Biso 1.000000     H
    H   1.0     0.216933     0.817971     0.764288  Biso 1.000000     H
    H   1.0     0.716953     0.317980     0.264283  Biso 1.000000     H
    H   1.0     0.716950     0.317981     0.764287  Biso 1.000000     H
    H   1.0     0.716951     0.817969     0.264283  Biso 1.000000     H
    H   1.0     0.716949     0.817971     0.764287  Biso 1.000000     H
    H   1.0     0.185620     0.462811     0.043317  Biso 1.000000     H
    H   1.0     0.185618     0.462811     0.543324  Biso 1.000000     H
    H   1.0     0.185621     0.962801     0.043321  Biso 1.000000     H
    H   1.0     0.185616     0.962802     0.543323  Biso 1.000000     H
    H   1.0     0.685640     0.462810     0.043327  Biso 1.000000     H
    H   1.0     0.685631     0.462811     0.543324  Biso 1.000000     H
    H   1.0     0.685631     0.962801     0.043318  Biso 1.000000     H
    H   1.0     0.685620     0.962802     0.543312  Biso 1.000000     H
    H   1.0     0.146629     0.241488     0.470541  Biso 1.000000     H
    H   1.0     0.146625     0.241488     0.970545  Biso 1.000000     H
    H   1.0     0.146626     0.741478     0.470541  Biso 1.000000     H
    H   1.0     0.146622     0.741479     0.970545  Biso 1.000000     H
    H   1.0     0.646641     0.241488     0.470541  Biso 1.000000     H
    H   1.0     0.646638     0.241488     0.970545  Biso 1.000000     H
    H   1.0     0.646639     0.741478     0.470541  Biso 1.000000     H
    H   1.0     0.646635     0.741479     0.970545  Biso 1.000000     H
    H   1.0     0.064845     0.207798     0.281963  Biso 1.000000     H
    H   1.0     0.064841     0.207798     0.781967  Biso 1.000000     H
    H   1.0     0.064843     0.707788     0.281963  Biso 1.000000     H
    H   1.0     0.064839     0.707789     0.781966  Biso 1.000000     H
    H   1.0     0.564859     0.207799     0.281962  Biso 1.000000     H
    H   1.0     0.564854     0.207799     0.781966  Biso 1.000000     H
    H   1.0     0.564856     0.707788     0.281963  Biso 1.000000     H
    H   1.0     0.564852     0.707789     0.781966  Biso 1.000000     H
    H   1.0     0.061781     0.022974     0.042609  Biso 1.000000     H
    H   1.0     0.061775     0.022974     0.542615  Biso 1.000000     H
    H   1.0     0.061779     0.522964     0.042609  Biso 1.000000     H
    H   1.0     0.061774     0.522965     0.542614  Biso 1.000000     H
    H   1.0     0.561793     0.022974     0.042610  Biso 1.000000     H
    H   1.0     0.561787     0.022974     0.542616  Biso 1.000000     H
    H   1.0     0.561792     0.522964     0.042608  Biso 1.000000     H
    H   1.0     0.561787     0.522965     0.542613  Biso 1.000000     H
    H   1.0     0.283069     0.182010     0.235719  Biso 1.000000     H
    H   1.0     0.283065     0.182010     0.735723  Biso 1.000000     H
    H   1.0     0.283065     0.682000     0.235720  Biso 1.000000     H
    H   1.0     0.283061     0.682001     0.735724  Biso 1.000000     H
    H   1.0     0.783078     0.182009     0.235721  Biso 1.000000     H
    H   1.0     0.783076     0.182011     0.735724  Biso 1.000000     H
    H   1.0     0.783078     0.681999     0.235719  Biso 1.000000     H
    H   1.0     0.783076     0.682001     0.735722  Biso 1.000000     H
    H   1.0     0.314380     0.037181     0.456677  Biso 1.000000     H
    H   1.0     0.314376     0.037182     0.956681  Biso 1.000000     H
    H   1.0     0.314383     0.537170     0.456684  Biso 1.000000     H
    H   1.0     0.314381     0.537171     0.956690  Biso 1.000000     H
    H   1.0     0.814404     0.037180     0.456692  Biso 1.000000     H
    H   1.0     0.814393     0.037181     0.956686  Biso 1.000000     H
    H   1.0     0.814396     0.537170     0.456686  Biso 1.000000     H
    H   1.0     0.814385     0.537172     0.956679  Biso 1.000000     H
    C   1.0     0.007680     0.231052     0.156568  Biso 1.000000     C
    C   1.0     0.007675     0.231053     0.656572  Biso 1.000000     C
    C   1.0     0.007677     0.731042     0.156568  Biso 1.000000     C
    C   1.0     0.007673     0.731043     0.656572  Biso 1.000000     C
    C   1.0     0.507692     0.231052     0.156568  Biso 1.000000     C
    C   1.0     0.507688     0.231053     0.656572  Biso 1.000000     C
    C   1.0     0.507690     0.731042     0.156568  Biso 1.000000     C
    C   1.0     0.507686     0.731043     0.656572  Biso 1.000000     C
    C   1.0     0.482528     0.257255     0.221007  Biso 1.000000     C
    C   1.0     0.482524     0.257255     0.721011  Biso 1.000000     C
    C   1.0     0.482526     0.757244     0.221007  Biso 1.000000     C
    C   1.0     0.482522     0.757246     0.721011  Biso 1.000000     C
    C   1.0     0.982541     0.257255     0.221007  Biso 1.000000     C
    C   1.0     0.982537     0.257256     0.721011  Biso 1.000000     C
    C   1.0     0.982538     0.757244     0.221007  Biso 1.000000     C
    C   1.0     0.982535     0.757246     0.721011  Biso 1.000000     C
    C   1.0     0.020150     0.405439     0.503389  Biso 1.000000     C
    C   1.0     0.020146     0.405440     0.000000  Biso 1.000000     C
    C   1.0     0.020148     0.905429     0.503388  Biso 1.000000     C
    C   1.0     0.020144     0.905430     0.000000  Biso 1.000000     C
    C   1.0     0.520163     0.405439     0.503389  Biso 1.000000     C
    C   1.0     0.520160     0.405440     0.000000  Biso 1.000000     C
    C   1.0     0.520159     0.905429     0.503390  Biso 1.000000     C
    C   1.0     0.520156     0.905430     0.000000  Biso 1.000000     C
    C   1.0     0.486672     0.473165     0.488486  Biso 1.000000     C
    C   1.0     0.486668     0.473166     0.988489  Biso 1.000000     C
    C   1.0     0.486668     0.973155     0.488487  Biso 1.000000     C
    C   1.0     0.486664     0.973156     0.988491  Biso 1.000000     C
    C   1.0     0.986685     0.473165     0.488486  Biso 1.000000     C
    C   1.0     0.986680     0.473165     0.988491  Biso 1.000000     C
    C   1.0     0.986683     0.973155     0.488484  Biso 1.000000     C
    C   1.0     0.986678     0.973156     0.988490  Biso 1.000000     C
    C   1.0     0.288087     0.260070     0.336785  Biso 1.000000     C
    C   1.0     0.288083     0.260070     0.836789  Biso 1.000000     C
    C   1.0     0.288082     0.760058     0.336786  Biso 1.000000     C
    C   1.0     0.288078     0.760059     0.836791  Biso 1.000000     C
    C   1.0     0.788097     0.260069     0.336786  Biso 1.000000     C
    C   1.0     0.788094     0.260070     0.836790  Biso 1.000000     C
    C   1.0     0.788096     0.760058     0.336786  Biso 1.000000     C
    C   1.0     0.788093     0.760060     0.836789  Biso 1.000000     C
    C   1.0     0.248366     0.271383     0.272989  Biso 1.000000     C
    C   1.0     0.248362     0.271383     0.772993  Biso 1.000000     C
    C   1.0     0.248361     0.771372     0.272991  Biso 1.000000     C
    C   1.0     0.248357     0.771373     0.772995  Biso 1.000000     C
    C   1.0     0.748376     0.271382     0.272991  Biso 1.000000     C
    C   1.0     0.748373     0.271383     0.772994  Biso 1.000000     C
    C   1.0     0.748375     0.771371     0.272990  Biso 1.000000     C
    C   1.0     0.748372     0.771374     0.772993  Biso 1.000000     C
    C   1.0     0.273613     0.409468     0.487909  Biso 1.000000     C
    C   1.0     0.273608     0.409468     0.987912  Biso 1.000000     C
    C   1.0     0.273609     0.909458     0.487908  Biso 1.000000     C
    C   1.0     0.273606     0.909459     0.987913  Biso 1.000000     C
    C   1.0     0.773626     0.409468     0.487910  Biso 1.000000     C
    C   1.0     0.773623     0.409468     0.987914  Biso 1.000000     C
    C   1.0     0.773621     0.909458     0.487906  Biso 1.000000     C
    C   1.0     0.773618     0.909459     0.987912  Biso 1.000000     C
    C   1.0     0.236388     0.469599     0.009876  Biso 1.000000     C
    C   1.0     0.236385     0.469599     0.509882  Biso 1.000000     C
    C   1.0     0.236386     0.969589     0.009876  Biso 1.000000     C
    C   1.0     0.236381     0.969590     0.509879  Biso 1.000000     C
    C   1.0     0.736403     0.469598     0.009880  Biso 1.000000     C
    C   1.0     0.736398     0.469599     0.509882  Biso 1.000000     C
    C   1.0     0.736398     0.969589     0.009875  Biso 1.000000     C
    C   1.0     0.736392     0.969590     0.509876  Biso 1.000000     C
    C   1.0     0.492328     0.268939     0.343436  Biso 1.000000     C
    C   1.0     0.492324     0.268940     0.843440  Biso 1.000000     C
    C   1.0     0.492325     0.768928     0.343436  Biso 1.000000     C
    C   1.0     0.492321     0.768929     0.843440  Biso 1.000000     C
    C   1.0     0.992341     0.268938     0.343436  Biso 1.000000     C
    C   1.0     0.992337     0.268939     0.843440  Biso 1.000000     C
    C   1.0     0.992338     0.768928     0.343436  Biso 1.000000     C
    C   1.0     0.992335     0.768930     0.843440  Biso 1.000000     C
    C   1.0     0.017479     0.242736     0.278997  Biso 1.000000     C
    C   1.0     0.017475     0.242737     0.779001  Biso 1.000000     C
    C   1.0     0.017476     0.742726     0.278997  Biso 1.000000     C
    C   1.0     0.017473     0.742727     0.779001  Biso 1.000000     C
    C   1.0     0.517492     0.242737     0.278997  Biso 1.000000     C
    C   1.0     0.517488     0.242737     0.779001  Biso 1.000000     C
    C   1.0     0.517489     0.742726     0.278997  Biso 1.000000     C
    C   1.0     0.517485     0.742727     0.779001  Biso 1.000000     C
    C   1.0     0.479856     0.094551    -0.003383  Biso 1.000000     C
    C   1.0     0.479851     0.094552     0.496621  Biso 1.000000     C
    C   1.0     0.479855     0.594542    -0.003385  Biso 1.000000     C
    C   1.0     0.479851     0.594542     0.496620  Biso 1.000000     C
    C   1.0     0.979869     0.094551    -0.003384  Biso 1.000000     C
    C   1.0     0.979866     0.094552     0.496619  Biso 1.000000     C
    C   1.0     0.979866     0.594541    -0.003384  Biso 1.000000     C
    C   1.0     0.979864     0.594542     0.496619  Biso 1.000000     C
    C   1.0     0.013335     0.026826     0.011519  Biso 1.000000     C
    C   1.0     0.013331     0.026826     0.511522  Biso 1.000000     C
    C   1.0     0.013332     0.526816     0.011519  Biso 1.000000     C
    C   1.0     0.013329     0.526816     0.511522  Biso 1.000000     C
    C   1.0     0.513347     0.026825     0.011519  Biso 1.000000     C
    C   1.0     0.513343     0.026826     0.511524  Biso 1.000000     C
    C   1.0     0.513346     0.526816     0.011517  Biso 1.000000     C
    C   1.0     0.513342     0.526816     0.511522  Biso 1.000000     C
    C   1.0     0.211924     0.239920     0.163217  Biso 1.000000     C
    C   1.0     0.211920     0.239920     0.663221  Biso 1.000000     C
    C   1.0     0.211920     0.739911     0.163217  Biso 1.000000     C
    C   1.0     0.211916     0.739912     0.663221  Biso 1.000000     C
    C   1.0     0.711934     0.239920     0.163218  Biso 1.000000     C
    C   1.0     0.711931     0.239921     0.663222  Biso 1.000000     C
    C   1.0     0.711934     0.739910     0.163217  Biso 1.000000     C
    C   1.0     0.711931     0.739912     0.663220  Biso 1.000000     C
    C   1.0     0.251646     0.228608     0.227012  Biso 1.000000     C
    C   1.0     0.251642     0.228608     0.727016  Biso 1.000000     C
    C   1.0     0.251641     0.728598     0.227013  Biso 1.000000     C
    C   1.0     0.251637     0.728599     0.727017  Biso 1.000000     C
    C   1.0     0.751655     0.228607     0.227014  Biso 1.000000     C
    C   1.0     0.751653     0.228609     0.727017  Biso 1.000000     C
    C   1.0     0.751655     0.728597     0.227013  Biso 1.000000     C
    C   1.0     0.751652     0.728599     0.727016  Biso 1.000000     C
    C   1.0     0.226393     0.090524     0.012092  Biso 1.000000     C
    C   1.0     0.226388     0.090524     0.512095  Biso 1.000000     C
    C   1.0     0.226392     0.590513     0.012095  Biso 1.000000     C
    C   1.0     0.226388     0.590514     0.512099  Biso 1.000000     C
    C   1.0     0.726406     0.090523     0.012093  Biso 1.000000     C
    C   1.0     0.726404     0.090524     0.512099  Biso 1.000000     C
    C   1.0     0.726403     0.590513     0.012092  Biso 1.000000     C
    C   1.0     0.726401     0.590514     0.512099  Biso 1.000000     C
    C   1.0     0.263615     0.030393     0.490122  Biso 1.000000     C
    C   1.0     0.263612     0.030393     0.990126  Biso 1.000000     C
    C   1.0     0.263616     0.530382     0.490127  Biso 1.000000     C
    C   1.0     0.263613     0.530383     0.990131  Biso 1.000000     C
    C   1.0     0.763633     0.030392     0.490128  Biso 1.000000     C
    C   1.0     0.763626     0.030393     0.990128  Biso 1.000000     C
    C   1.0     0.763629     0.530382     0.490127  Biso 1.000000     C
    C   1.0     0.763623     0.530383     0.990127  Biso 1.000000     C
    O   1.0     0.384210     0.252579     0.488283  Biso 1.000000     O
    O   1.0     0.384206     0.252580     0.988287  Biso 1.000000     O
    O   1.0     0.384207     0.752569     0.488284  Biso 1.000000     O
    O   1.0     0.384204     0.752570     0.988288  Biso 1.000000     O
    O   1.0     0.884223     0.252579     0.488284  Biso 1.000000     O
    O   1.0     0.884219     0.252580     0.988288  Biso 1.000000     O
    O   1.0     0.884220     0.752569     0.488283  Biso 1.000000     O
    O   1.0     0.884216     0.752570     0.988287  Biso 1.000000     O
    O   1.0     0.481411     0.261354     0.102863  Biso 1.000000     O
    O   1.0     0.481407     0.261355     0.602867  Biso 1.000000     O
    O   1.0     0.481409     0.761344     0.102863  Biso 1.000000     O
    O   1.0     0.481405     0.761345     0.602867  Biso 1.000000     O
    O   1.0     0.981424     0.261354     0.102863  Biso 1.000000     O
    O   1.0     0.981420     0.261355     0.602867  Biso 1.000000     O
    O   1.0     0.981422     0.761344     0.102863  Biso 1.000000     O
    O   1.0     0.981418     0.761345     0.602867  Biso 1.000000     O
    O   1.0     0.054545     0.182096     0.159309  Biso 1.000000     O
    O   1.0     0.054541     0.182097     0.659313  Biso 1.000000     O
    O   1.0     0.054542     0.682086     0.159309  Biso 1.000000     O
    O   1.0     0.054539     0.682087     0.659313  Biso 1.000000     O
    O   1.0     0.554557     0.182096     0.159309  Biso 1.000000     O
    O   1.0     0.554553     0.182096     0.659313  Biso 1.000000     O
    O   1.0     0.554555     0.682086     0.159309  Biso 1.000000     O
    O   1.0     0.554552     0.682088     0.659313  Biso 1.000000     O
    O   1.0     0.490671     0.358432     0.478117  Biso 1.000000     O
    O   1.0     0.490667     0.358432     0.978121  Biso 1.000000     O
    O   1.0     0.490668     0.858422     0.478117  Biso 1.000000     O
    O   1.0     0.490665     0.858423     0.978121  Biso 1.000000     O
    O   1.0     0.990684     0.358432     0.478117  Biso 1.000000     O
    O   1.0     0.990680     0.358433     0.978121  Biso 1.000000     O
    O   1.0     0.990681     0.858422     0.478117  Biso 1.000000     O
    O   1.0     0.990678     0.858423     0.978121  Biso 1.000000     O
    O   1.0     0.077216     0.399392     0.040309  Biso 1.000000     O
    O   1.0     0.077213     0.399393     0.540313  Biso 1.000000     O
    O   1.0     0.077214     0.899382     0.040308  Biso 1.000000     O
    O   1.0     0.077210     0.899383     0.540312  Biso 1.000000     O
    O   1.0     0.577231     0.399393     0.040306  Biso 1.000000     O
    O   1.0     0.577226     0.399393     0.540312  Biso 1.000000     O
    O   1.0     0.577226     0.899382     0.040309  Biso 1.000000     O
    O   1.0     0.577220     0.899382     0.540316  Biso 1.000000     O
    O   1.0     0.284848     0.307532     0.372605  Biso 1.000000     O
    O   1.0     0.284844     0.307532     0.872609  Biso 1.000000     O
    O   1.0     0.284845     0.807521     0.372606  Biso 1.000000     O
    O   1.0     0.284841     0.807522     0.872610  Biso 1.000000     O
    O   1.0     0.784860     0.307532     0.372605  Biso 1.000000     O
    O   1.0     0.784856     0.307533     0.872609  Biso 1.000000     O
    O   1.0     0.784858     0.807520     0.372605  Biso 1.000000     O
    O   1.0     0.784854     0.807522     0.872609  Biso 1.000000     O
    O   1.0     0.322778     0.204309     0.351199  Biso 1.000000     O
    O   1.0     0.322774     0.204309     0.851203  Biso 1.000000     O
    O   1.0     0.322773     0.704298     0.351200  Biso 1.000000     O
    O   1.0     0.322768     0.704298     0.851204  Biso 1.000000     O
    O   1.0     0.822787     0.204308     0.351201  Biso 1.000000     O
    O   1.0     0.822785     0.204310     0.851204  Biso 1.000000     O
    O   1.0     0.822786     0.704297     0.351200  Biso 1.000000     O
    O   1.0     0.822784     0.704300     0.851203  Biso 1.000000     O
    O   1.0     0.332365     0.417051     0.447425  Biso 1.000000     O
    O   1.0     0.332361     0.417051     0.947429  Biso 1.000000     O
    O   1.0     0.332362     0.917041     0.447424  Biso 1.000000     O
    O   1.0     0.332358     0.917041     0.947428  Biso 1.000000     O
    O   1.0     0.832378     0.417050     0.447426  Biso 1.000000     O
    O   1.0     0.832374     0.417051     0.947430  Biso 1.000000     O
    O   1.0     0.832375     0.917041     0.447424  Biso 1.000000     O
    O   1.0     0.832371     0.917041     0.947428  Biso 1.000000     O
    O   1.0     0.247784     0.352303     0.010660  Biso 1.000000     O
    O   1.0     0.247780     0.352303     0.510665  Biso 1.000000     O
    O   1.0     0.247782     0.852293     0.010661  Biso 1.000000     O
    O   1.0     0.247778     0.852294     0.510665  Biso 1.000000     O
    O   1.0     0.747798     0.352302     0.010662  Biso 1.000000     O
    O   1.0     0.747793     0.352303     0.510665  Biso 1.000000     O
    O   1.0     0.747794     0.852293     0.010660  Biso 1.000000     O
    O   1.0     0.747789     0.852294     0.510662  Biso 1.000000     O
    O   1.0     0.115797     0.247411     0.011720  Biso 1.000000     O
    O   1.0     0.115793     0.247412     0.511724  Biso 1.000000     O
    O   1.0     0.115794     0.747402     0.011720  Biso 1.000000     O
    O   1.0     0.115791     0.747402     0.511724  Biso 1.000000     O
    O   1.0     0.615810     0.247411     0.011720  Biso 1.000000     O
    O   1.0     0.615806     0.247412     0.511724  Biso 1.000000     O
    O   1.0     0.615807     0.747402     0.011720  Biso 1.000000     O
    O   1.0     0.615803     0.747402     0.511724  Biso 1.000000     O
    O   1.0     0.018596     0.238636     0.397141  Biso 1.000000     O
    O   1.0     0.018591     0.238637     0.897145  Biso 1.000000     O
    O   1.0     0.018593     0.738626     0.397141  Biso 1.000000     O
    O   1.0     0.018589     0.738627     0.897145  Biso 1.000000     O
    O   1.0     0.518608     0.238636     0.397141  Biso 1.000000     O
    O   1.0     0.518604     0.238637     0.897145  Biso 1.000000     O
    O   1.0     0.518606     0.738626     0.397141  Biso 1.000000     O
    O   1.0     0.518602     0.738627     0.897145  Biso 1.000000     O
    O   1.0     0.445464     0.317896     0.340694  Biso 1.000000     O
    O   1.0     0.445460     0.317896     0.840698  Biso 1.000000     O
    O   1.0     0.445459     0.817884     0.340694  Biso 1.000000     O
    O   1.0     0.445456     0.817885     0.840698  Biso 1.000000     O
    O   1.0     0.945475     0.317895     0.340694  Biso 1.000000     O
    O   1.0     0.945472     0.317896     0.840698  Biso 1.000000     O
    O   1.0     0.945473     0.817884     0.340694  Biso 1.000000     O
    O   1.0     0.945470     0.817886     0.840698  Biso 1.000000     O
    O   1.0     0.009335     0.141559     0.021887  Biso 1.000000     O
    O   1.0     0.009331     0.141559     0.521891  Biso 1.000000     O
    O   1.0     0.009333     0.641549     0.021887  Biso 1.000000     O
    O   1.0     0.009330     0.641549     0.521891  Biso 1.000000     O
    O   1.0     0.509348     0.141559     0.021887  Biso 1.000000     O
    O   1.0     0.509344     0.141559     0.521891  Biso 1.000000     O
    O   1.0     0.509346     0.641549     0.021887  Biso 1.000000     O
    O   1.0     0.509342     0.641549     0.521891  Biso 1.000000     O
    O   1.0     0.422788     0.100598     0.459698  Biso 1.000000     O
    O   1.0     0.422785     0.100598     0.959702  Biso 1.000000     O
    O   1.0     0.422788     0.600589     0.459696  Biso 1.000000     O
    O   1.0     0.422785     0.600589     0.959699  Biso 1.000000     O
    O   1.0     0.922805     0.100599     0.459693  Biso 1.000000     O
    O   1.0     0.922799     0.100599     0.959701  Biso 1.000000     O
    O   1.0     0.922801     0.600589     0.459695  Biso 1.000000     O
    O   1.0     0.922795     0.600588     0.959702  Biso 1.000000     O
    O   1.0     0.215160     0.192457     0.127398  Biso 1.000000     O
    O   1.0     0.215156     0.192457     0.627402  Biso 1.000000     O
    O   1.0     0.215157     0.692448     0.127398  Biso 1.000000     O
    O   1.0     0.215154     0.692449     0.627402  Biso 1.000000     O
    O   1.0     0.715172     0.192458     0.127399  Biso 1.000000     O
    O   1.0     0.715168     0.192458     0.627403  Biso 1.000000     O
    O   1.0     0.715171     0.692448     0.127398  Biso 1.000000     O
    O   1.0     0.715167     0.692450     0.627402  Biso 1.000000     O
    O   1.0     0.177234     0.295681     0.148802  Biso 1.000000     O
    O   1.0     0.177230     0.295681     0.648807  Biso 1.000000     O
    O   1.0     0.177230     0.795672     0.148803  Biso 1.000000     O
    O   1.0     0.177226     0.795673     0.648807  Biso 1.000000     O
    O   1.0     0.677244     0.295681     0.148804  Biso 1.000000     O
    O   1.0     0.677241     0.295682     0.648807  Biso 1.000000     O
    O   1.0     0.677244     0.795671     0.148803  Biso 1.000000     O
    O   1.0     0.677241     0.795674     0.648806  Biso 1.000000     O
    O   1.0     0.167641     0.082940     0.052577  Biso 1.000000     O
    O   1.0     0.167637     0.082941     0.552580  Biso 1.000000     O
    O   1.0     0.167639     0.582930     0.052578  Biso 1.000000     O
    O   1.0     0.167636     0.582931     0.552583  Biso 1.000000     O
    O   1.0     0.667654     0.082940     0.052577  Biso 1.000000     O
    O   1.0     0.667651     0.082941     0.552582  Biso 1.000000     O
    O   1.0     0.667652     0.582930     0.052577  Biso 1.000000     O
    O   1.0     0.667649     0.582931     0.552583  Biso 1.000000     O
    O   1.0     0.252221     0.147689     0.489340  Biso 1.000000     O
    O   1.0     0.252217     0.147689     0.989344  Biso 1.000000     O
    O   1.0     0.252220     0.647678     0.489343  Biso 1.000000     O
    O   1.0     0.252217     0.647679     0.989347  Biso 1.000000     O
    O   1.0     0.752236     0.147688     0.489344  Biso 1.000000     O
    O   1.0     0.752231     0.147689     0.989346  Biso 1.000000     O
    O   1.0     0.752233     0.647678     0.489343  Biso 1.000000     O
    O   1.0     0.752228     0.647679     0.989345  Biso 1.000000     O
   Zn   1.0     0.377881     0.335642     0.419066  Biso 1.000000    Zn
   Zn   1.0     0.377877     0.335643     0.919069  Biso 1.000000    Zn
   Zn   1.0     0.377879     0.835632     0.419066  Biso 1.000000    Zn
   Zn   1.0     0.377875     0.835633     0.919070  Biso 1.000000    Zn
   Zn   1.0     0.877894     0.335642     0.419066  Biso 1.000000    Zn
   Zn   1.0     0.877890     0.335643     0.919070  Biso 1.000000    Zn
   Zn   1.0     0.877892     0.835632     0.419066  Biso 1.000000    Zn
   Zn   1.0     0.877888     0.835633     0.919070  Biso 1.000000    Zn
   Zn   1.0     0.352602     0.175462     0.444113  Biso 1.000000    Zn
   Zn   1.0     0.352598     0.175462     0.944117  Biso 1.000000    Zn
   Zn   1.0     0.352600     0.675452     0.444113  Biso 1.000000    Zn
   Zn   1.0     0.352596     0.675452     0.944117  Biso 1.000000    Zn
   Zn   1.0     0.852615     0.175462     0.444113  Biso 1.000000    Zn
   Zn   1.0     0.852611     0.175462     0.944117  Biso 1.000000    Zn
   Zn   1.0     0.852613     0.675452     0.444113  Biso 1.000000    Zn
   Zn   1.0     0.852608     0.675452     0.944117  Biso 1.000000    Zn
   Zn   1.0     0.122126     0.164349     0.080938  Biso 1.000000    Zn
   Zn   1.0     0.122122     0.164349     0.580942  Biso 1.000000    Zn
   Zn   1.0     0.122123     0.664339     0.080938  Biso 1.000000    Zn
   Zn   1.0     0.122119     0.664339     0.580942  Biso 1.000000    Zn
   Zn   1.0     0.622138     0.164349     0.080938  Biso 1.000000    Zn
   Zn   1.0     0.622134     0.164349     0.580942  Biso 1.000000    Zn
   Zn   1.0     0.622136     0.664339     0.080938  Biso 1.000000    Zn
   Zn   1.0     0.622132     0.664340     0.580942  Biso 1.000000    Zn
   Zn   1.0     0.147405     0.324529     0.055890  Biso 1.000000    Zn
   Zn   1.0     0.147401     0.324530     0.555894  Biso 1.000000    Zn
   Zn   1.0     0.147402     0.824519     0.055890  Biso 1.000000    Zn
   Zn   1.0     0.147398     0.824520     0.555894  Biso 1.000000    Zn
   Zn   1.0     0.647418     0.324529     0.055890  Biso 1.000000    Zn
   Zn   1.0     0.647414     0.324530     0.555895  Biso 1.000000    Zn
   Zn   1.0     0.647415     0.824519     0.055890  Biso 1.000000    Zn
   Zn   1.0     0.647411     0.824520     0.555894  Biso 1.000000    Zn
   Zn   1.0     0.000000     0.249995    -0.000000  Biso 1.000000    Zn
   Zn   1.0     0.000000     0.249996     0.500004  Biso 1.000000    Zn
   Zn   1.0    -0.000004     0.749985    -0.000000  Biso 1.000000    Zn
   Zn   1.0    -0.000007     0.749986     0.500004  Biso 1.000000    Zn
   Zn   1.0     0.500012     0.249995    -0.000000  Biso 1.000000    Zn
   Zn   1.0     0.500008     0.249996     0.500004  Biso 1.000000    Zn
   Zn   1.0     0.500009     0.749985    -0.000000  Biso 1.000000    Zn
   Zn   1.0     0.500005     0.749986     0.500004  Biso 1.000000    Zn
