#======================================================================

# CRYSTAL DATA

#----------------------------------------------------------------------

data_VESTA_phase_1


_pd_phase_name                         MOF
_cell_length_a                         13.41900
_cell_length_b                         16.50900
_cell_length_c                         13.42700
_cell_angle_alpha                      90.00100
_cell_angle_beta                       90.00000
_cell_angle_gamma                      90.00000
_symmetry_space_group_name_H-M         "P 1"
_symmetry_Int_Tables_number            1

loop_
_symmetry_equiv_pos_as_xyz
   "x, y, z"

loop_
   _atom_site_label
   _atom_site_occupancy
   _atom_site_fract_x
   _atom_site_fract_y
   _atom_site_fract_z
   _atom_site_adp_type
   _atom_site_B_iso_or_equiv
   _atom_site_type_symbol
    H   1.0     0.338304     0.063161     0.942077  Biso 1.000000     H
    H   1.0     0.838320     0.063161     0.942077  Biso 1.000000     H
    H   1.0     0.088284     0.562856     0.441596  Biso 1.000000     H
    H   1.0     0.588301     0.562855     0.441595  Biso 1.000000     H
    H   1.0     0.157890     0.442981     0.943303  Biso 1.000000     H
    H   1.0     0.657906     0.442981     0.943303  Biso 1.000000     H
    H   1.0     0.407883     0.942493     0.444096  Biso 1.000000     H
    H   1.0     0.907899     0.942492     0.444096  Biso 1.000000     H
    H   1.0     0.157868     0.563345     0.058398  Biso 1.000000     H
    H   1.0     0.657884     0.563345     0.058398  Biso 1.000000     H
    H   1.0     0.407881     0.062885     0.559138  Biso 1.000000     H
    H   1.0     0.907897     0.062886     0.559138  Biso 1.000000     H
    H   1.0     0.338293     0.942835     0.057218  Biso 1.000000     H
    H   1.0     0.838309     0.942835     0.057218  Biso 1.000000     H
    H   1.0     0.088305     0.442543     0.556776  Biso 1.000000     H
    H   1.0     0.588321     0.442543     0.556777  Biso 1.000000     H
    H   1.0     0.157861     0.942819     0.057205  Biso 1.000000     H
    H   1.0     0.657877     0.942819     0.057205  Biso 1.000000     H
    H   1.0     0.407889     0.442584     0.556806  Biso 1.000000     H
    H   1.0     0.907905     0.442584     0.556806  Biso 1.000000     H
    H   1.0     0.338300     0.563112     0.058744  Biso 1.000000     H
    H   1.0     0.838316     0.563113     0.058743  Biso 1.000000     H
    H   1.0     0.088297     0.063080     0.558821  Biso 1.000000     H
    H   1.0     0.588313     0.063081     0.558820  Biso 1.000000     H
    H   1.0     0.338309     0.442746     0.943655  Biso 1.000000     H
    H   1.0     0.838325     0.442746     0.943655  Biso 1.000000     H
    H   1.0     0.088287     0.942687     0.443781  Biso 1.000000     H
    H   1.0     0.588303     0.942686     0.443781  Biso 1.000000     H
    H   1.0     0.157886     0.063145     0.942062  Biso 1.000000     H
    H   1.0     0.657902     0.063145     0.942062  Biso 1.000000     H
    H   1.0     0.407882     0.562895     0.441621  Biso 1.000000     H
    H   1.0     0.907898     0.562895     0.441620  Biso 1.000000     H
    H   1.0     0.248090     0.753151     0.118263  Biso 1.000000     H
    H   1.0     0.748106     0.753152     0.118264  Biso 1.000000     H
    H   1.0     0.248106     0.252863     0.882494  Biso 1.000000     H
    H   1.0     0.748123     0.252861     0.882494  Biso 1.000000     H
    H   1.0     0.498113     0.252601     0.618232  Biso 1.000000     H
    H   1.0     0.998130     0.252605     0.618232  Biso 1.000000     H
    H   1.0     0.498098     0.752816     0.382525  Biso 1.000000     H
    H   1.0     0.998114     0.752816     0.382525  Biso 1.000000     H
    C   1.0     0.407704     0.036295     0.967953  Biso 1.000000     C
    C   1.0     0.907720     0.036295     0.967953  Biso 1.000000     C
    C   1.0     0.157687     0.536046     0.467552  Biso 1.000000     C
    C   1.0     0.657703     0.536047     0.467554  Biso 1.000000     C
    C   1.0     0.088490     0.469799     0.969258  Biso 1.000000     C
    C   1.0     0.588506     0.469799     0.969258  Biso 1.000000     C
    C   1.0     0.338485     0.969387     0.469933  Biso 1.000000     C
    C   1.0     0.838501     0.969388     0.469932  Biso 1.000000     C
    C   1.0     0.088476     0.536424     0.032581  Biso 1.000000     C
    C   1.0     0.588492     0.536424     0.032581  Biso 1.000000     C
    C   1.0     0.338490     0.036082     0.533136  Biso 1.000000     C
    C   1.0     0.838506     0.036081     0.533137  Biso 1.000000     C
    C   1.0     0.407688     0.969716     0.031349  Biso 1.000000     C
    C   1.0     0.907704     0.969716     0.031349  Biso 1.000000     C
    C   1.0     0.157693     0.469400     0.530848  Biso 1.000000     C
    C   1.0     0.657709     0.469399     0.530847  Biso 1.000000     C
    C   1.0     0.088469     0.969709     0.031340  Biso 1.000000     C
    C   1.0     0.588486     0.969709     0.031341  Biso 1.000000     C
    C   1.0     0.338494     0.469422     0.530866  Biso 1.000000     C
    C   1.0     0.838510     0.469421     0.530864  Biso 1.000000     C
    C   1.0     0.407695     0.536295     0.032774  Biso 1.000000     C
    C   1.0     0.907711     0.536295     0.032774  Biso 1.000000     C
    C   1.0     0.157690     0.036190     0.532961  Biso 1.000000     C
    C   1.0     0.657706     0.036189     0.532962  Biso 1.000000     C
    C   1.0     0.407705     0.469669     0.969454  Biso 1.000000     C
    C   1.0     0.907722     0.469669     0.969454  Biso 1.000000     C
    C   1.0     0.157683     0.969495     0.469760  Biso 1.000000     C
    C   1.0     0.657699     0.969496     0.469759  Biso 1.000000     C
    C   1.0     0.088483     0.036288     0.967944  Biso 1.000000     C
    C   1.0     0.588499     0.036288     0.967944  Biso 1.000000     C
    C   1.0     0.338486     0.536067     0.467568  Biso 1.000000     C
    C   1.0     0.838503     0.536068     0.467570  Biso 1.000000     C
    C   1.0     0.498102     0.070221     0.936076  Biso 1.000000     C
    C   1.0     0.998118     0.070221     0.936076  Biso 1.000000     C
    C   1.0     0.498099     0.142133     0.868440  Biso 1.000000     C
    C   1.0     0.998115     0.142133     0.868440  Biso 1.000000     C
    C   1.0     0.248084     0.569940     0.435621  Biso 1.000000     C
    C   1.0     0.748100     0.569938     0.435618  Biso 1.000000     C
    C   1.0     0.248074     0.642024     0.368275  Biso 1.000000     C
    C   1.0     0.748090     0.642025     0.368276  Biso 1.000000     C
    C   1.0     0.498108     0.435963     0.937240  Biso 1.000000     C
    C   1.0     0.998124     0.435964     0.937240  Biso 1.000000     C
    C   1.0     0.498106     0.364499     0.868900  Biso 1.000000     C
    C   1.0     0.998122     0.364499     0.868900  Biso 1.000000     C
    C   1.0     0.248085     0.935750     0.437612  Biso 1.000000     C
    C   1.0     0.748101     0.935749     0.437614  Biso 1.000000     C
    C   1.0     0.248081     0.864334     0.369199  Biso 1.000000     C
    C   1.0     0.748097     0.864335     0.369198  Biso 1.000000     C
    C   1.0     0.498092     0.570271     0.064565  Biso 1.000000     C
    C   1.0     0.998108     0.570271     0.064565  Biso 1.000000     C
    C   1.0     0.498085     0.642200     0.132156  Biso 1.000000     C
    C   1.0     0.998101     0.642200     0.132156  Biso 1.000000     C
    C   1.0     0.248091     0.070028     0.564961  Biso 1.000000     C
    C   1.0     0.748106     0.070029     0.564959  Biso 1.000000     C
    C   1.0     0.248090     0.142123     0.632272  Biso 1.000000     C
    C   1.0     0.748106     0.142123     0.632272  Biso 1.000000     C
    C   1.0     0.498087     0.935921     0.063421  Biso 1.000000     C
    C   1.0     0.998103     0.935922     0.063421  Biso 1.000000     C
    C   1.0     0.498085     0.864508     0.131828  Biso 1.000000     C
    C   1.0     0.998101     0.864508     0.131828  Biso 1.000000     C
    C   1.0     0.248097     0.435737     0.563111  Biso 1.000000     C
    C   1.0     0.748113     0.435738     0.563113  Biso 1.000000     C
    C   1.0     0.248100     0.364375     0.631597  Biso 1.000000     C
    C   1.0     0.748116     0.364375     0.631596  Biso 1.000000     C
    O   1.0     0.082731     0.170199     0.842606  Biso 1.000000     O
    O   1.0     0.582747     0.170199     0.842606  Biso 1.000000     O
    O   1.0     0.332720     0.670121     0.342485  Biso 1.000000     O
    O   1.0     0.832736     0.670121     0.342485  Biso 1.000000     O
    O   1.0     0.413457     0.336646     0.842742  Biso 1.000000     O
    O   1.0     0.913473     0.336646     0.842742  Biso 1.000000     O
    O   1.0     0.163428     0.836568     0.342914  Biso 1.000000     O
    O   1.0     0.663444     0.836568     0.342915  Biso 1.000000     O
    O   1.0     0.413422     0.670257     0.157960  Biso 1.000000     O
    O   1.0     0.913438     0.670257     0.157960  Biso 1.000000     O
    O   1.0     0.163425     0.170212     0.658025  Biso 1.000000     O
    O   1.0     0.663441     0.170212     0.658024  Biso 1.000000     O
    O   1.0     0.082725     0.836668     0.157992  Biso 1.000000     O
    O   1.0     0.582742     0.836668     0.157992  Biso 1.000000     O
    O   1.0     0.332755     0.336630     0.657908  Biso 1.000000     O
    O   1.0     0.832771     0.336630     0.657908  Biso 1.000000     O
    O   1.0     0.413425     0.836656     0.157964  Biso 1.000000     O
    O   1.0     0.913441     0.836656     0.157964  Biso 1.000000     O
    O   1.0     0.163442     0.336610     0.657865  Biso 1.000000     O
    O   1.0     0.663458     0.336610     0.657865  Biso 1.000000     O
    O   1.0     0.082726     0.670257     0.157977  Biso 1.000000     O
    O   1.0     0.582742     0.670257     0.157977  Biso 1.000000     O
    O   1.0     0.332749     0.170209     0.658045  Biso 1.000000     O
    O   1.0     0.832765     0.170209     0.658044  Biso 1.000000     O
    O   1.0     0.082732     0.336672     0.842681  Biso 1.000000     O
    O   1.0     0.582748     0.336672     0.842681  Biso 1.000000     O
    O   1.0     0.332727     0.836578     0.342881  Biso 1.000000     O
    O   1.0     0.832743     0.836578     0.342882  Biso 1.000000     O
    O   1.0     0.413442     0.170197     0.842630  Biso 1.000000     O
    O   1.0     0.913458     0.170197     0.842630  Biso 1.000000     O
    O   1.0     0.163418     0.670122     0.342513  Biso 1.000000     O
    O   1.0     0.663434     0.670122     0.342513  Biso 1.000000     O
    O   1.0     0.498118     0.253484     0.690427  Biso 1.000000     O
    O   1.0     0.998134     0.253483     0.690427  Biso 1.000000     O
    O   1.0     0.248093     0.753517     0.190465  Biso 1.000000     O
    O   1.0     0.748110     0.753516     0.190465  Biso 1.000000     O
    O   1.0     0.498101     0.753464     0.310324  Biso 1.000000     O
    O   1.0     0.998117     0.753464     0.310324  Biso 1.000000     O
    O   1.0     0.248109     0.253483     0.810294  Biso 1.000000     O
    O   1.0     0.748126     0.253483     0.810294  Biso 1.000000     O
   Al   1.0     0.123104     0.253507     0.750334  Biso 1.000000    Al
   Al   1.0     0.623120     0.253507     0.750334  Biso 1.000000    Al
   Al   1.0     0.373108     0.253506     0.750344  Biso 1.000000    Al
   Al   1.0     0.873124     0.253506     0.750344  Biso 1.000000    Al
   Al   1.0     0.373097     0.753492     0.250369  Biso 1.000000    Al
   Al   1.0     0.873113     0.753492     0.250369  Biso 1.000000    Al
   Al   1.0     0.123080     0.753493     0.250373  Biso 1.000000    Al
   Al   1.0     0.623096     0.753493     0.250373  Biso 1.000000    Al
