#======================================================================

# CRYSTAL DATA

#----------------------------------------------------------------------

data_VESTA_phase_1


_pd_phase_name                         MOF
_cell_length_a                         16.23300
_cell_length_b                         17.22800
_cell_length_c                         18.12600
_cell_angle_alpha                      90.00400
_cell_angle_beta                       90.00400
_cell_angle_gamma                      89.98300
_symmetry_space_group_name_H-M         "P 1"
_symmetry_Int_Tables_number            1

loop_
_symmetry_equiv_pos_as_xyz
   "x, y, z"

loop_
   _atom_site_label
   _atom_site_occupancy
   _atom_site_fract_x
   _atom_site_fract_y
   _atom_site_fract_z
   _atom_site_adp_type
   _atom_site_B_iso_or_equiv
   _atom_site_type_symbol
    H   1.0     0.217047     0.934912     0.997340  Biso 1.000000     H
    H   1.0     0.365936     0.729573     0.980034  Biso 1.000000     H
    H   1.0     0.386643     0.877952     0.170916  Biso 1.000000     H
    H   1.0     0.471351     0.763496     0.164945  Biso 1.000000     H
    H   1.0     0.422472     0.683760     0.121128  Biso 1.000000     H
    H   1.0     0.500412     0.735738     0.074311  Biso 1.000000     H
    H   1.0     0.032182     0.528167     0.726558  Biso 1.000000     H
    H   1.0     0.294696     0.519198     0.756201  Biso 1.000000     H
    H   1.0     0.148079     0.313179     0.787496  Biso 1.000000     H
    H   1.0     0.361058     0.402082     0.799316  Biso 1.000000     H
    H   1.0     0.300643     0.323864     0.833264  Biso 1.000000     H
    H   1.0     0.325924     0.328370     0.738708  Biso 1.000000     H
    H   1.0     0.525350     0.698962     0.756500  Biso 1.000000     H
    H   1.0     0.721258     0.650316     0.602995  Biso 1.000000     H
    H   1.0     0.501345     0.764994     0.528987  Biso 1.000000     H
    H   1.0     0.645389     0.595532     0.782414  Biso 1.000000     H
    H   1.0     0.736144     0.607738     0.729250  Biso 1.000000     H
    H   1.0     0.701197     0.683391     0.787832  Biso 1.000000     H
    H   1.0     0.190428     0.993133     0.375704  Biso 1.000000     H
    H   1.0     0.103542     0.969922     0.461526  Biso 1.000000     H
    H   1.0     0.046112     0.053240     0.489396  Biso 1.000000     H
    H   1.0    -0.002362     0.978181     0.436385  Biso 1.000000     H
    H   1.0     0.052313     0.136565     0.300140  Biso 1.000000     H
    H   1.0     0.964794     0.081917     0.331597  Biso 1.000000     H
    H   1.0     0.011587     0.152718     0.390426  Biso 1.000000     H
    H   1.0     0.413394     0.039182     0.408303  Biso 1.000000     H
    H   1.0     0.362736     0.844521     0.349808  Biso 1.000000     H
    H   1.0     0.454109     0.806445     0.391505  Biso 1.000000     H
    H   1.0     0.362094     0.816302     0.445107  Biso 1.000000     H
    H   1.0     0.502172     0.990917     0.483817  Biso 1.000000     H
    H   1.0     0.466320     0.905029     0.529119  Biso 1.000000     H
    H   1.0     0.543569     0.898174     0.458871  Biso 1.000000     H
    H   1.0     0.282986     0.065072     0.497335  Biso 1.000000     H
    H   1.0     0.134103     0.270415     0.480040  Biso 1.000000     H
    H   1.0     0.113364     0.122030     0.670898  Biso 1.000000     H
    H   1.0     0.028666     0.236507     0.664938  Biso 1.000000     H
    H   1.0     0.077544     0.316235     0.621124  Biso 1.000000     H
    H   1.0    -0.000395     0.264247     0.574300  Biso 1.000000     H
    H   1.0     0.467826     0.471836     0.226547  Biso 1.000000     H
    H   1.0     0.205318     0.480792     0.256210  Biso 1.000000     H
    H   1.0     0.351928     0.686831     0.287467  Biso 1.000000     H
    H   1.0     0.138953     0.597920     0.299307  Biso 1.000000     H
    H   1.0     0.199376     0.676141     0.333257  Biso 1.000000     H
    H   1.0     0.174078     0.671627     0.238701  Biso 1.000000     H
    H   1.0     0.974688     0.301007     0.256513  Biso 1.000000     H
    H   1.0     0.778775     0.349669     0.102995  Biso 1.000000     H
    H   1.0     0.998688     0.234997     0.028989  Biso 1.000000     H
    H   1.0     0.854664     0.404452     0.282434  Biso 1.000000     H
    H   1.0     0.763899     0.392257     0.229259  Biso 1.000000     H
    H   1.0     0.798845     0.316600     0.287828  Biso 1.000000     H
    H   1.0     0.309591     0.006852     0.875745  Biso 1.000000     H
    H   1.0     0.396486     0.030065     0.961567  Biso 1.000000     H
    H   1.0     0.453917     0.946748     0.989431  Biso 1.000000     H
    H   1.0     0.502390     0.021809     0.936435  Biso 1.000000     H
    H   1.0     0.447701     0.863432     0.800162  Biso 1.000000     H
    H   1.0     0.535249     0.918078     0.831631  Biso 1.000000     H
    H   1.0     0.488437     0.847276     0.890446  Biso 1.000000     H
    H   1.0     0.086651     0.960812     0.908294  Biso 1.000000     H
    H   1.0     0.137269     0.155482     0.849804  Biso 1.000000     H
    H   1.0     0.045896     0.193543     0.891509  Biso 1.000000     H
    H   1.0     0.137925     0.183706     0.945107  Biso 1.000000     H
    H   1.0     0.997899     0.009065     0.983799  Biso 1.000000     H
    H   1.0     0.033701     0.094974     0.029097  Biso 1.000000     H
    H   1.0     0.956483     0.101798     0.958854  Biso 1.000000     H
    H   1.0     0.782955     0.434939     0.502694  Biso 1.000000     H
    H   1.0     0.634088     0.229667     0.519963  Biso 1.000000     H
    H   1.0     0.613385     0.378044     0.329083  Biso 1.000000     H
    H   1.0     0.528690     0.263624     0.335025  Biso 1.000000     H
    H   1.0     0.577571     0.183865     0.378837  Biso 1.000000     H
    H   1.0     0.499613     0.235878     0.425647  Biso 1.000000     H
    H   1.0     0.967803     0.028149     0.773501  Biso 1.000000     H
    H   1.0     0.705292     0.019256     0.743869  Biso 1.000000     H
    H   1.0     0.851967     0.813191     0.712575  Biso 1.000000     H
    H   1.0     0.638950     0.902145     0.700741  Biso 1.000000     H
    H   1.0     0.699401     0.823907     0.666790  Biso 1.000000     H
    H   1.0     0.674113     0.828431     0.761344  Biso 1.000000     H
    H   1.0     0.474716     0.198952     0.743518  Biso 1.000000     H
    H   1.0     0.278850     0.150283     0.897021  Biso 1.000000     H
    H   1.0     0.498675     0.264997     0.971037  Biso 1.000000     H
    H   1.0     0.354758     0.095487     0.717608  Biso 1.000000     H
    H   1.0     0.263986     0.107709     0.770758  Biso 1.000000     H
    H   1.0     0.298902     0.183347     0.712179  Biso 1.000000     H
    H   1.0     0.809634     0.493060     0.124275  Biso 1.000000     H
    H   1.0     0.896518     0.469885     0.038421  Biso 1.000000     H
    H   1.0     0.953887     0.553223     0.010586  Biso 1.000000     H
    H   1.0     0.000000     0.478132     0.063539  Biso 1.000000     H
    H   1.0     0.947672     0.636467     0.199877  Biso 1.000000     H
    H   1.0     0.035226     0.581832     0.168396  Biso 1.000000     H
    H   1.0     0.988378     0.652649     0.109597  Biso 1.000000     H
    H   1.0     0.586675     0.539207     0.091666  Biso 1.000000     H
    H   1.0     0.637287     0.344533     0.150231  Biso 1.000000     H
    H   1.0     0.545894     0.306508     0.108563  Biso 1.000000     H
    H   1.0     0.637902     0.316259     0.054943  Biso 1.000000     H
    H   1.0     0.497849     0.490959     0.016198  Biso 1.000000     H
    H   1.0     0.533692     0.405018     0.970926  Biso 1.000000     H
    H   1.0     0.456452     0.398254     0.041178  Biso 1.000000     H
    H   1.0     0.717045     0.565073     0.002679  Biso 1.000000     H
    H   1.0     0.865878     0.770366     0.019970  Biso 1.000000     H
    H   1.0     0.886619     0.621952     0.829105  Biso 1.000000     H
    H   1.0     0.971310     0.736401     0.835059  Biso 1.000000     H
    H   1.0     0.922409     0.816149     0.878873  Biso 1.000000     H
    H   1.0     0.000000     0.764157     0.925694  Biso 1.000000     H
    H   1.0     0.532234     0.971839     0.273516  Biso 1.000000     H
    H   1.0     0.794737     0.980729     0.243869  Biso 1.000000     H
    H   1.0     0.648053     0.186787     0.212574  Biso 1.000000     H
    H   1.0     0.861070     0.097837     0.200733  Biso 1.000000     H
    H   1.0     0.800614     0.176072     0.166797  Biso 1.000000     H
    H   1.0     0.825933     0.171559     0.261350  Biso 1.000000     H
    H   1.0     0.025256     0.801020     0.243521  Biso 1.000000     H
    H   1.0     0.221152     0.849698     0.397031  Biso 1.000000     H
    H   1.0     0.001343     0.734975     0.471029  Biso 1.000000     H
    H   1.0     0.145217     0.904489     0.217605  Biso 1.000000     H
    H   1.0     0.236000     0.892276     0.270758  Biso 1.000000     H
    H   1.0     0.201078     0.816631     0.212174  Biso 1.000000     H
    H   1.0     0.690375     0.506936     0.624285  Biso 1.000000     H
    H   1.0     0.603477     0.530108     0.538436  Biso 1.000000     H
    H   1.0     0.546110     0.446764     0.510591  Biso 1.000000     H
    H   1.0     0.497572     0.521855     0.563548  Biso 1.000000     H
    H   1.0     0.552347     0.363539     0.699884  Biso 1.000000     H
    H   1.0     0.464765     0.418165     0.668398  Biso 1.000000     H
    H   1.0     0.511631     0.347342     0.609604  Biso 1.000000     H
    H   1.0     0.913337     0.460788     0.591696  Biso 1.000000     H
    H   1.0     0.862729     0.655467     0.650267  Biso 1.000000     H
    H   1.0     0.954120     0.693489     0.608608  Biso 1.000000     H
    H   1.0     0.862104     0.683734     0.554978  Biso 1.000000     H
    H   1.0     0.002124     0.509029     0.516219  Biso 1.000000     H
    H   1.0     0.966311     0.594961     0.470946  Biso 1.000000     H
    H   1.0     0.043527     0.601731     0.541212  Biso 1.000000     H
    C   1.0     0.278874     0.986747     0.128970  Biso 1.000000     C
    C   1.0     0.299001     0.912976     0.088704  Biso 1.000000     C
    C   1.0     0.262569     0.895757     0.020798  Biso 1.000000     C
    C   1.0     0.287176     0.829520     0.981782  Biso 1.000000     C
    C   1.0     0.347096     0.780249     0.011896  Biso 1.000000     C
    C   1.0     0.383329     0.795745     0.080565  Biso 1.000000     C
    C   1.0     0.358683     0.862735     0.118182  Biso 1.000000     C
    C   1.0     0.447728     0.742213     0.111989  Biso 1.000000     C
    C   1.0     0.999577     0.378054     0.759053  Biso 1.000000     C
    C   1.0     0.082453     0.416404     0.756515  Biso 1.000000     C
    C   1.0     0.087800     0.495403     0.738894  Biso 1.000000     C
    C   1.0     0.164505     0.532203     0.739848  Biso 1.000000     C
    C   1.0     0.235692     0.489047     0.755714  Biso 1.000000     C
    C   1.0     0.231704     0.409792     0.771613  Biso 1.000000     C
    C   1.0     0.153988     0.374395     0.773138  Biso 1.000000     C
    C   1.0     0.308736     0.363936     0.786757  Biso 1.000000     C
    C   1.0     0.421906     0.767813     0.662279  Biso 1.000000     C
    C   1.0     0.505609     0.736166     0.644931  Biso 1.000000     C
    C   1.0     0.551892     0.701492     0.701310  Biso 1.000000     C
    C   1.0     0.630445     0.671018     0.687896  Biso 1.000000     C
    C   1.0     0.660906     0.674410     0.615756  Biso 1.000000     C
    C   1.0     0.615039     0.708181     0.558501  Biso 1.000000     C
    C   1.0     0.537356     0.739507     0.573291  Biso 1.000000     C
    C   1.0     0.680976     0.637461     0.749666  Biso 1.000000     C
    C   1.0     0.172430     0.617639     0.727030  Biso 1.000000     C
    C   1.0     0.254603     0.814898     0.905480  Biso 1.000000     C
    C   1.0     0.648504     0.708636     0.481426  Biso 1.000000     C
    C   1.0     0.152587     0.035718     0.345731  Biso 1.000000     C
    C   1.0     0.055156     0.010652     0.444946  Biso 1.000000     C
    C   1.0     0.023549     0.108679     0.347815  Biso 1.000000     C
    C   1.0     0.388292     0.983143     0.389892  Biso 1.000000     C
    C   1.0     0.399092     0.842120     0.400597  Biso 1.000000     C
    C   1.0     0.487764     0.929246     0.476408  Biso 1.000000     C
    C   1.0     0.221141     0.013240     0.628961  Biso 1.000000     C
    C   1.0     0.201016     0.087012     0.588701  Biso 1.000000     C
    C   1.0     0.237457     0.104236     0.520806  Biso 1.000000     C
    C   1.0     0.212852     0.170460     0.481778  Biso 1.000000     C
    C   1.0     0.152933     0.219744     0.511907  Biso 1.000000     C
    C   1.0     0.116690     0.204244     0.580565  Biso 1.000000     C
    C   1.0     0.141334     0.137254     0.618176  Biso 1.000000     C
    C   1.0     0.052290     0.257778     0.611985  Biso 1.000000     C
    C   1.0     0.500453     0.621948     0.259044  Biso 1.000000     C
    C   1.0     0.417551     0.583601     0.256496  Biso 1.000000     C
    C   1.0     0.412207     0.504597     0.238884  Biso 1.000000     C
    C   1.0     0.335504     0.467793     0.239846  Biso 1.000000     C
    C   1.0     0.264317     0.510950     0.255712  Biso 1.000000     C
    C   1.0     0.268303     0.590208     0.271605  Biso 1.000000     C
    C   1.0     0.346018     0.625610     0.273119  Biso 1.000000     C
    C   1.0     0.191272     0.636064     0.286747  Biso 1.000000     C
    C   1.0     0.078108     0.232179     0.162279  Biso 1.000000     C
    C   1.0     0.994419     0.263806     0.144938  Biso 1.000000     C
    C   1.0     0.948154     0.298506     0.201314  Biso 1.000000     C
    C   1.0     0.869581     0.328940     0.187908  Biso 1.000000     C
    C   1.0     0.839140     0.325600     0.115754  Biso 1.000000     C
    C   1.0     0.884978     0.291779     0.058507  Biso 1.000000     C
    C   1.0     0.962686     0.260501     0.073288  Biso 1.000000     C
    C   1.0     0.819069     0.362531     0.249673  Biso 1.000000     C
    C   1.0     0.327580     0.382357     0.227026  Biso 1.000000     C
    C   1.0     0.245424     0.185092     0.405481  Biso 1.000000     C
    C   1.0     0.851546     0.291368     0.981432  Biso 1.000000     C
    C   1.0     0.347431     0.964276     0.845760  Biso 1.000000     C
    C   1.0     0.444874     0.989337     0.944986  Biso 1.000000     C
    C   1.0     0.476469     0.891318     0.847844  Biso 1.000000     C
    C   1.0     0.111741     0.016853     0.889888  Biso 1.000000     C
    C   1.0     0.100924     0.157880     0.900595  Biso 1.000000     C
    C   1.0     0.000000     0.070737     0.976396  Biso 1.000000     C
    C   1.0     0.721151     0.486777     0.371044  Biso 1.000000     C
    C   1.0     0.701013     0.413025     0.411310  Biso 1.000000     C
    C   1.0     0.737434     0.395792     0.479218  Biso 1.000000     C
    C   1.0     0.712830     0.329578     0.518239  Biso 1.000000     C
    C   1.0     0.652919     0.280322     0.488093  Biso 1.000000     C
    C   1.0     0.616686     0.295841     0.419426  Biso 1.000000     C
    C   1.0     0.641339     0.362815     0.381818  Biso 1.000000     C
    C   1.0     0.552306     0.242331     0.387981  Biso 1.000000     C
    C   1.0     0.000442     0.878051     0.740979  Biso 1.000000     C
    C   1.0     0.917550     0.916399     0.743567  Biso 1.000000     C
    C   1.0     0.912191     0.995409     0.761150  Biso 1.000000     C
    C   1.0     0.835476     0.032212     0.760242  Biso 1.000000     C
    C   1.0     0.764299     0.989093     0.744328  Biso 1.000000     C
    C   1.0     0.768300     0.909822     0.728483  Biso 1.000000     C
    C   1.0     0.846035     0.874417     0.726906  Biso 1.000000     C
    C   1.0     0.691287     0.863988     0.713297  Biso 1.000000     C
    C   1.0     0.578114     0.267824     0.837732  Biso 1.000000     C
    C   1.0     0.494437     0.236157     0.855093  Biso 1.000000     C
    C   1.0     0.448174     0.201481     0.798710  Biso 1.000000     C
    C   1.0     0.369653     0.170982     0.812124  Biso 1.000000     C
    C   1.0     0.339182     0.174384     0.884261  Biso 1.000000     C
    C   1.0     0.385020     0.208168     0.941519  Biso 1.000000     C
    C   1.0     0.462683     0.239501     0.926733  Biso 1.000000     C
    C   1.0     0.319142     0.137424     0.750350  Biso 1.000000     C
    C   1.0     0.827556     0.117657     0.773013  Biso 1.000000     C
    C   1.0     0.745416     0.314922     0.594531  Biso 1.000000     C
    C   1.0     0.351539     0.208631     0.018579  Biso 1.000000     C
    C   1.0     0.847459     0.535642     0.154260  Biso 1.000000     C
    C   1.0     0.944888     0.510613     0.055014  Biso 1.000000     C
    C   1.0     0.976451     0.608595     0.152188  Biso 1.000000     C
    C   1.0     0.611755     0.483154     0.110101  Biso 1.000000     C
    C   1.0     0.600919     0.342132     0.099449  Biso 1.000000     C
    C   1.0     0.512254     0.429282     0.023621  Biso 1.000000     C
    C   1.0     0.778876     0.513210     0.871063  Biso 1.000000     C
    C   1.0     0.798990     0.586980     0.911315  Biso 1.000000     C
    C   1.0     0.762579     0.604203     0.979228  Biso 1.000000     C
    C   1.0     0.787139     0.670453     0.018222  Biso 1.000000     C
    C   1.0     0.847083     0.719682     0.988120  Biso 1.000000     C
    C   1.0     0.883286     0.704189     0.919436  Biso 1.000000     C
    C   1.0     0.858678     0.637183     0.881843  Biso 1.000000     C
    C   1.0     0.947689     0.757689     0.888016  Biso 1.000000     C
    C   1.0     0.499561     0.121932     0.240983  Biso 1.000000     C
    C   1.0     0.582478     0.083584     0.243561  Biso 1.000000     C
    C   1.0     0.587843     0.004586     0.261180  Biso 1.000000     C
    C   1.0     0.664553     0.967776     0.260234  Biso 1.000000     C
    C   1.0     0.735734     0.010898     0.244358  Biso 1.000000     C
    C   1.0     0.731726     0.090155     0.228459  Biso 1.000000     C
    C   1.0     0.653996     0.125571     0.226932  Biso 1.000000     C
    C   1.0     0.808740     0.135997     0.213303  Biso 1.000000     C
    C   1.0     0.921909     0.732162     0.337737  Biso 1.000000     C
    C   1.0     0.005576     0.763800     0.355085  Biso 1.000000     C
    C   1.0     0.051807     0.798515     0.298713  Biso 1.000000     C
    C   1.0     0.130344     0.828990     0.312122  Biso 1.000000     C
    C   1.0     0.160808     0.825619     0.384267  Biso 1.000000     C
    C   1.0     0.114998     0.791795     0.441513  Biso 1.000000     C
    C   1.0     0.037314     0.760500     0.426734  Biso 1.000000     C
    C   1.0     0.180841     0.862558     0.250348  Biso 1.000000     C
    C   1.0     0.672480     0.882338     0.273026  Biso 1.000000     C
    C   1.0     0.754599     0.685076     0.094534  Biso 1.000000     C
    C   1.0     0.148461     0.791374     0.518593  Biso 1.000000     C
    C   1.0     0.652557     0.464356     0.654269  Biso 1.000000     C
    C   1.0     0.555110     0.489379     0.555022  Biso 1.000000     C
    C   1.0     0.523565     0.391404     0.652194  Biso 1.000000     C
    C   1.0     0.888259     0.516845     0.610127  Biso 1.000000     C
    C   1.0     0.899091     0.657868     0.599487  Biso 1.000000     C
    C   1.0    -0.012280     0.570705     0.523653  Biso 1.000000     C
    N   1.0     0.423919     0.920909     0.420304  Biso 1.000000     N
    N   1.0     0.079385     0.050087     0.377174  Biso 1.000000     N
    N   1.0     0.076112     0.079086     0.920298  Biso 1.000000     N
    N   1.0     0.420633     0.949905     0.877211  Biso 1.000000     N
    N   1.0     0.576117     0.420930     0.079710  Biso 1.000000     N
    N   1.0     0.920650     0.550010     0.122813  Biso 1.000000     N
    N   1.0     0.923895     0.579069     0.579747  Biso 1.000000     N
    N   1.0     0.579363     0.449987     0.622818  Biso 1.000000     N
    O   1.0     0.223029     0.030590     0.100269  Biso 1.000000     O
    O   1.0     0.319594     0.000877     0.186821  Biso 1.000000     O
    O   1.0     0.941522     0.410185     0.724303  Biso 1.000000     O
    O   1.0     0.994965     0.314814     0.796730  Biso 1.000000     O
    O   1.0     0.385184     0.807283     0.612241  Biso 1.000000     O
    O   1.0     0.394069     0.753061     0.726366  Biso 1.000000     O
    O   1.0     0.107615     0.655943     0.709696  Biso 1.000000     O
    O   1.0     0.244324     0.646261     0.734891  Biso 1.000000     O
    O   1.0     0.291559     0.760492     0.869360  Biso 1.000000     O
    O   1.0     0.197006     0.856779     0.880804  Biso 1.000000     O
    O   1.0     0.603849     0.740134     0.431781  Biso 1.000000     O
    O   1.0     0.718649     0.676896     0.471809  Biso 1.000000     O
    O   1.0     0.209470     0.825980     0.708091  Biso 1.000000     O
    O   1.0     0.178257     0.067458     0.287842  Biso 1.000000     O
    O   1.0     0.330670     0.979940     0.343529  Biso 1.000000     O
    O   1.0     0.276997     0.969403     0.600272  Biso 1.000000     O
    O   1.0     0.180419     0.999107     0.686803  Biso 1.000000     O
    O   1.0     0.558506     0.589814     0.224296  Biso 1.000000     O
    O   1.0     0.505060     0.685198     0.296715  Biso 1.000000     O
    O   1.0     0.114821     0.192703     0.112237  Biso 1.000000     O
    O   1.0     0.105952     0.246931     0.226369  Biso 1.000000     O
    O   1.0     0.392393     0.344051     0.209690  Biso 1.000000     O
    O   1.0     0.255691     0.353730     0.234895  Biso 1.000000     O
    O   1.0     0.208457     0.239489     0.369361  Biso 1.000000     O
    O   1.0     0.303019     0.143212     0.380799  Biso 1.000000     O
    O   1.0     0.896188     0.259851     0.931789  Biso 1.000000     O
    O   1.0     0.781392     0.323092     0.971814  Biso 1.000000     O
    O   1.0     0.290545     0.174018     0.208081  Biso 1.000000     O
    O   1.0     0.321767     0.932554     0.787852  Biso 1.000000     O
    O   1.0     0.169360     0.020055     0.843529  Biso 1.000000     O
    O   1.0     0.777022     0.530584     0.399735  Biso 1.000000     O
    O   1.0     0.680423     0.500936     0.313204  Biso 1.000000     O
    O   1.0     0.058501     0.910179     0.775704  Biso 1.000000     O
    O   1.0     0.005058     0.814795     0.703315  Biso 1.000000     O
    O   1.0     0.614836     0.307276     0.887775  Biso 1.000000     O
    O   1.0     0.605931     0.253097     0.773627  Biso 1.000000     O
    O   1.0     0.892373     0.155937     0.790330  Biso 1.000000     O
    O   1.0     0.755649     0.146295     0.765175  Biso 1.000000     O
    O   1.0     0.708472     0.260527     0.630642  Biso 1.000000     O
    O   1.0     0.802998     0.356787     0.619217  Biso 1.000000     O
    O   1.0     0.396167     0.240137     0.068227  Biso 1.000000     O
    O   1.0     0.281407     0.176900     0.028194  Biso 1.000000     O
    O   1.0     0.790540     0.325979     0.791909  Biso 1.000000     O
    O   1.0     0.821789     0.567371     0.212166  Biso 1.000000     O
    O   1.0     0.669371     0.479938     0.156472  Biso 1.000000     O
    O   1.0     0.723002     0.469406     0.899741  Biso 1.000000     O
    O   1.0     0.819608     0.499039     0.813232  Biso 1.000000     O
    O   1.0     0.441511     0.089812     0.275712  Biso 1.000000     O
    O   1.0     0.494939     0.185166     0.203296  Biso 1.000000     O
    O   1.0     0.885206     0.692695     0.387770  Biso 1.000000     O
    O   1.0     0.894081     0.746888     0.273636  Biso 1.000000     O
    O   1.0     0.607663     0.844055     0.290324  Biso 1.000000     O
    O   1.0     0.744384     0.853697     0.265182  Biso 1.000000     O
    O   1.0     0.791548     0.739472     0.130650  Biso 1.000000     O
    O   1.0     0.697009     0.643222     0.119211  Biso 1.000000     O
    O   1.0     0.103843     0.759860     0.568234  Biso 1.000000     O
    O   1.0     0.218598     0.823096     0.528208  Biso 1.000000     O
    O   1.0     0.709491     0.674014     0.291908  Biso 1.000000     O
    O   1.0     0.678235     0.432634     0.712175  Biso 1.000000     O
    O   1.0     0.830645     0.520060     0.656490  Biso 1.000000     O
   Zn   1.0     0.278088     0.753550     0.762917  Biso 1.000000    Zn
   Zn   1.0     0.225657     0.142946     0.122116  Biso 1.000000    Zn
   Zn   1.0     0.888273     0.267238     0.821486  Biso 1.000000    Zn
   Zn   1.0     0.312522     0.079865     0.274584  Biso 1.000000    Zn
   Zn   1.0     0.221934     0.246443     0.262919  Biso 1.000000    Zn
   Zn   1.0     0.274357     0.857052     0.622129  Biso 1.000000    Zn
   Zn   1.0     0.611761     0.732759     0.321480  Biso 1.000000    Zn
   Zn   1.0     0.187494     0.920140     0.774584  Biso 1.000000    Zn
   Zn   1.0     0.721923     0.253573     0.737089  Biso 1.000000    Zn
   Zn   1.0     0.774389     0.642941     0.377880  Biso 1.000000    Zn
   Zn   1.0     0.111767     0.767234     0.678528  Biso 1.000000    Zn
   Zn   1.0     0.687509     0.579869     0.225415  Biso 1.000000    Zn
   Zn   1.0     0.778098     0.746421     0.237092  Biso 1.000000    Zn
   Zn   1.0     0.725649     0.357050     0.877885  Biso 1.000000    Zn
   Zn   1.0     0.388245     0.232759     0.178521  Biso 1.000000    Zn
   Zn   1.0     0.812520     0.420130     0.725425  Biso 1.000000    Zn
