#======================================================================

# CRYSTAL DATA

#----------------------------------------------------------------------

data_VESTA_phase_1


_pd_phase_name                         MOF
_cell_length_a                         13.43900
_cell_length_b                         13.43800
_cell_length_c                         27.58000
_cell_angle_alpha                      90.08400
_cell_angle_beta                       89.93700
_cell_angle_gamma                      89.99600
_symmetry_space_group_name_H-M         "P 1"
_symmetry_Int_Tables_number            1

loop_
_symmetry_equiv_pos_as_xyz
   "x, y, z"

loop_
   _atom_site_label
   _atom_site_occupancy
   _atom_site_fract_x
   _atom_site_fract_y
   _atom_site_fract_z
   _atom_site_adp_type
   _atom_site_B_iso_or_equiv
   _atom_site_type_symbol
    H   1.0     0.562105     0.796073     0.595063  Biso 1.000000     H
    H   1.0     0.070948     0.322690     0.778545  Biso 1.000000     H
    H   1.0     0.562062     0.704389     0.095122  Biso 1.000000     H
    H   1.0     0.177361     0.070916     0.778737  Biso 1.000000     H
    H   1.0     0.589216     0.262674     0.535660  Biso 1.000000     H
    H   1.0     0.737582     0.411095     0.964312  Biso 1.000000     H
    H   1.0     0.703987     0.562359     0.595149  Biso 1.000000     H
    H   1.0     0.458483     0.152496     0.689566  Biso 1.000000     H
    H   1.0     0.411155     0.762381     0.964340  Biso 1.000000     H
    H   1.0     0.570963     0.822722     0.221145  Biso 1.000000     H
    H   1.0     0.929097     0.677359     0.221478  Biso 1.000000     H
    H   1.0     0.958507     0.652484     0.310706  Biso 1.000000     H
    H   1.0     0.041511     0.152473     0.189448  Biso 1.000000     H
    H   1.0     0.429086     0.177323     0.778879  Biso 1.000000     H
    H   1.0     0.847568     0.958489     0.310567  Biso 1.000000     H
    H   1.0     0.295994     0.062057     0.904970  Biso 1.000000     H
    H   1.0     0.911186     0.237600     0.535725  Biso 1.000000     H
    H   1.0     0.070938     0.177300     0.278720  Biso 1.000000     H
    H   1.0     0.677374     0.929123     0.721154  Biso 1.000000     H
    H   1.0     0.347527     0.041549     0.189556  Biso 1.000000     H
    H   1.0     0.204320     0.062008     0.404909  Biso 1.000000     H
    H   1.0     0.937748     0.796115     0.095124  Biso 1.000000     H
    H   1.0     0.588888     0.237658     0.035684  Biso 1.000000     H
    H   1.0     0.762617     0.089164     0.964368  Biso 1.000000     H
    H   1.0     0.089208     0.737283     0.964347  Biso 1.000000     H
    H   1.0     0.204294     0.437734     0.904830  Biso 1.000000     H
    H   1.0     0.347557     0.458515     0.689421  Biso 1.000000     H
    H   1.0     0.937823     0.704369     0.595203  Biso 1.000000     H
    H   1.0     0.795748     0.562306     0.095194  Biso 1.000000     H
    H   1.0     0.704044     0.937987     0.095056  Biso 1.000000     H
    H   1.0     0.910839     0.262758     0.035679  Biso 1.000000     H
    H   1.0     0.152447     0.458472     0.189307  Biso 1.000000     H
    H   1.0     0.322712     0.429096     0.778681  Biso 1.000000     H
    H   1.0     0.262380     0.911139     0.535688  Biso 1.000000     H
    H   1.0     0.177329     0.429071     0.278534  Biso 1.000000     H
    H   1.0     0.652522     0.958497     0.810468  Biso 1.000000     H
    H   1.0     0.437936     0.203969     0.404961  Biso 1.000000     H
    H   1.0     0.062299     0.203928     0.904903  Biso 1.000000     H
    H   1.0     0.088860     0.762436     0.464301  Biso 1.000000     H
    H   1.0     0.652490     0.541525     0.310603  Biso 1.000000     H
    H   1.0     0.847599     0.541575     0.810716  Biso 1.000000     H
    H   1.0     0.795722     0.938037     0.595117  Biso 1.000000     H
    H   1.0     0.458495     0.347545     0.189411  Biso 1.000000     H
    H   1.0     0.041538     0.347563     0.689317  Biso 1.000000     H
    H   1.0     0.762730     0.410841     0.464332  Biso 1.000000     H
    H   1.0     0.429115     0.322660     0.278678  Biso 1.000000     H
    H   1.0     0.237421     0.910881     0.035658  Biso 1.000000     H
    H   1.0     0.296051     0.437681     0.404875  Biso 1.000000     H
    H   1.0     0.737661     0.088907     0.464339  Biso 1.000000     H
    H   1.0     0.262456     0.588944     0.035713  Biso 1.000000     H
    H   1.0     0.929102     0.822740     0.721303  Biso 1.000000     H
    H   1.0     0.677336     0.570945     0.221343  Biso 1.000000     H
    H   1.0     0.822679     0.929124     0.221287  Biso 1.000000     H
    H   1.0     0.437980     0.295648     0.904901  Biso 1.000000     H
    H   1.0     0.322675     0.070922     0.278870  Biso 1.000000     H
    H   1.0     0.570932     0.677382     0.721345  Biso 1.000000     H
    H   1.0     0.541564     0.847549     0.310458  Biso 1.000000     H
    H   1.0     0.410826     0.737365     0.464365  Biso 1.000000     H
    H   1.0     0.958530     0.847567     0.810576  Biso 1.000000     H
    H   1.0     0.237311     0.589200     0.535692  Biso 1.000000     H
    H   1.0     0.152471     0.041553     0.689457  Biso 1.000000     H
    H   1.0     0.541551     0.652497     0.810613  Biso 1.000000     H
    H   1.0     0.062222     0.295667     0.404823  Biso 1.000000     H
    H   1.0     0.822716     0.570977     0.721489  Biso 1.000000     H
    C   1.0     0.274975     0.551253     0.506167  Biso 1.000000     C
    C   1.0     0.961181     0.430794     0.799697  Biso 1.000000     C
    C   1.0     0.026257     0.195227     0.939886  Biso 1.000000     C
    C   1.0     0.775118     0.448952     0.993861  Biso 1.000000     C
    C   1.0     0.069247     0.538893     0.299688  Biso 1.000000     C
    C   1.0     0.973777     0.695437     0.560200  Biso 1.000000     C
    C   1.0     0.499786     0.109733     0.716350  Biso 1.000000     C
    C   1.0     0.304775     0.473725     0.439864  Biso 1.000000     C
    C   1.0     0.461126     0.930811     0.200303  Biso 1.000000     C
    C   1.0     0.038863     0.569252     0.200326  Biso 1.000000     C
    C   1.0     0.569267     0.461117     0.200317  Biso 1.000000     C
    C   1.0     0.123879     0.016214     0.765651  Biso 1.000000     C
    C   1.0     0.609768     0.999808     0.783683  Biso 1.000000     C
    C   1.0     0.948780     0.225070     0.006160  Biso 1.000000     C
    C   1.0     0.551326     0.225014     0.506159  Biso 1.000000     C
    C   1.0     0.376162     0.016226     0.265718  Biso 1.000000     C
    C   1.0     0.695263     0.526315     0.560159  Biso 1.000000     C
    C   1.0     0.961143     0.069228     0.299699  Biso 1.000000     C
    C   1.0     0.520429     0.084906     0.852538  Biso 1.000000     C
    C   1.0     0.390279     0.000236     0.216341  Biso 1.000000     C
    C   1.0     0.415119     0.979621     0.352532  Biso 1.000000     C
    C   1.0     0.275051     0.948749     0.006155  Biso 1.000000     C
    C   1.0     0.623837     0.516253     0.234403  Biso 1.000000     C
    C   1.0     0.000205     0.109722     0.216277  Biso 1.000000     C
    C   1.0     0.584923     0.020418     0.647492  Biso 1.000000     C
    C   1.0     0.448930     0.724876     0.993871  Biso 1.000000     C
    C   1.0     0.930796     0.461152     0.700335  Biso 1.000000     C
    C   1.0     0.026268     0.304599     0.439825  Biso 1.000000     C
    C   1.0     0.430777     0.538925     0.799705  Biso 1.000000     C
    C   1.0     0.804654     0.973943     0.560149  Biso 1.000000     C
    C   1.0     0.069264     0.961143     0.799712  Biso 1.000000     C
    C   1.0     0.304767     0.026091     0.939925  Biso 1.000000     C
    C   1.0     0.430778     0.961123     0.299712  Biso 1.000000     C
    C   1.0     0.195395     0.473718     0.939833  Biso 1.000000     C
    C   1.0     0.483807     0.123861     0.765727  Biso 1.000000     C
    C   1.0     0.516240     0.876182     0.234297  Biso 1.000000     C
    C   1.0     0.890330     0.999783     0.283735  Biso 1.000000     C
    C   1.0     0.473892     0.304606     0.939874  Biso 1.000000     C
    C   1.0     0.483830     0.376131     0.265615  Biso 1.000000     C
    C   1.0     0.983813     0.623871     0.234475  Biso 1.000000     C
    C   1.0     0.979605     0.415076     0.852489  Biso 1.000000     C
    C   1.0     0.551112     0.275162     0.006153  Biso 1.000000     C
    C   1.0     0.890346     0.500257     0.783826  Biso 1.000000     C
    C   1.0     0.973789     0.804815     0.060140  Biso 1.000000     C
    C   1.0     0.516214     0.623912     0.734408  Biso 1.000000     C
    C   1.0     0.020377     0.915179     0.647519  Biso 1.000000     C
    C   1.0     0.038895     0.930814     0.700324  Biso 1.000000     C
    C   1.0     0.500272     0.609720     0.783766  Biso 1.000000     C
    C   1.0     0.876160     0.983828     0.234373  Biso 1.000000     C
    C   1.0     0.376211     0.483786     0.765620  Biso 1.000000     C
    C   1.0     0.915138     0.479622     0.647541  Biso 1.000000     C
    C   1.0     0.526120     0.804812     0.560107  Biso 1.000000     C
    C   1.0     0.930777     0.038896     0.200311  Biso 1.000000     C
    C   1.0     0.084981     0.979581     0.852520  Biso 1.000000     C
    C   1.0     0.915056     0.020458     0.147502  Biso 1.000000     C
    C   1.0     0.479554     0.585020     0.647519  Biso 1.000000     C
    C   1.0     0.473921     0.195228     0.439918  Biso 1.000000     C
    C   1.0     0.448715     0.775025     0.493866  Biso 1.000000     C
    C   1.0     0.016231     0.376176     0.765547  Biso 1.000000     C
    C   1.0     0.224921     0.551087     0.006164  Biso 1.000000     C
    C   1.0     0.016232     0.123820     0.265637  Biso 1.000000     C
    C   1.0     0.109698     0.499789     0.216196  Biso 1.000000     C
    C   1.0     0.500264     0.890313     0.283674  Biso 1.000000     C
    C   1.0     0.724986     0.051295     0.993871  Biso 1.000000     C
    C   1.0     0.109710     0.000257     0.716288  Biso 1.000000     C
    C   1.0     0.725064     0.448787     0.493856  Biso 1.000000     C
    C   1.0     0.538908     0.430762     0.299698  Biso 1.000000     C
    C   1.0     0.195387     0.026101     0.439878  Biso 1.000000     C
    C   1.0     0.979661     0.084857     0.352504  Biso 1.000000     C
    C   1.0     0.695270     0.973953     0.060101  Biso 1.000000     C
    C   1.0     0.569268     0.038920     0.700312  Biso 1.000000     C
    C   1.0     0.584874     0.479647     0.147516  Biso 1.000000     C
    C   1.0     0.051043     0.724915     0.493854  Biso 1.000000     C
    C   1.0     0.020433     0.584961     0.147533  Biso 1.000000     C
    C   1.0     0.000253     0.390344     0.716206  Biso 1.000000     C
    C   1.0     0.051266     0.774972     0.993866  Biso 1.000000     C
    C   1.0     0.461138     0.569278     0.700325  Biso 1.000000     C
    C   1.0     0.499775     0.390320     0.216257  Biso 1.000000     C
    C   1.0     0.623888     0.983820     0.734306  Biso 1.000000     C
    C   1.0     0.876223     0.516279     0.734485  Biso 1.000000     C
    C   1.0     0.520485     0.415020     0.352503  Biso 1.000000     C
    C   1.0     0.983809     0.876220     0.734386  Biso 1.000000     C
    C   1.0     0.415168     0.520389     0.852506  Biso 1.000000     C
    C   1.0     0.123822     0.483769     0.265537  Biso 1.000000     C
    C   1.0     0.390295     0.499833     0.716265  Biso 1.000000     C
    C   1.0     0.538922     0.069234     0.799720  Biso 1.000000     C
    C   1.0     0.084901     0.520417     0.352480  Biso 1.000000     C
    C   1.0     0.999793     0.609704     0.283817  Biso 1.000000     C
    C   1.0     0.949002     0.275121     0.506172  Biso 1.000000     C
    C   1.0     0.999834     0.890319     0.783746  Biso 1.000000     C
    C   1.0     0.479610     0.915130     0.147485  Biso 1.000000     C
    C   1.0     0.609749     0.500209     0.283758  Biso 1.000000     C
    C   1.0     0.775177     0.051128     0.493865  Biso 1.000000     C
    C   1.0     0.804645     0.526321     0.060191  Biso 1.000000     C
    C   1.0     0.526150     0.695431     0.060149  Biso 1.000000     C
    C   1.0     0.224864     0.948917     0.506162  Biso 1.000000     C
    N   1.0     0.270200     0.516093     0.965628  Biso 1.000000     N
    N   1.0     0.016077     0.770233     0.534402  Biso 1.000000     N
    N   1.0     0.532530     0.372575     0.005804  Biso 1.000000     N
    N   1.0     0.016236     0.729878     0.034386  Biso 1.000000     N
    N   1.0     0.032575     0.872374     0.994177  Biso 1.000000     N
    N   1.0     0.532638     0.127614     0.505841  Biso 1.000000     N
    N   1.0     0.729840     0.483946     0.034396  Biso 1.000000     N
    N   1.0     0.516356     0.270141     0.465657  Biso 1.000000     N
    N   1.0     0.983812     0.270164     0.965641  Biso 1.000000     N
    N   1.0     0.967594     0.372529     0.505826  Biso 1.000000     N
    N   1.0     0.627592     0.032620     0.994195  Biso 1.000000     N
    N   1.0     0.517340     0.608680     0.036954  Biso 1.000000     N
    N   1.0     0.872581     0.032533     0.494211  Biso 1.000000     N
    N   1.0     0.482699     0.391357     0.963070  Biso 1.000000     N
    N   1.0     0.482685     0.108618     0.463125  Biso 1.000000     N
    N   1.0     0.391373     0.482541     0.463098  Biso 1.000000     N
    N   1.0     0.229862     0.516206     0.465628  Biso 1.000000     N
    N   1.0     0.108659     0.017304     0.463072  Biso 1.000000     N
    N   1.0     0.983969     0.229802     0.465624  Biso 1.000000     N
    N   1.0     0.127459     0.967509     0.505814  Biso 1.000000     N
    N   1.0     0.017452     0.108637     0.963117  Biso 1.000000     N
    N   1.0     0.967468     0.127667     0.005848  Biso 1.000000     N
    N   1.0     0.982605     0.608703     0.536979  Biso 1.000000     N
    N   1.0     0.483858     0.770217     0.034369  Biso 1.000000     N
    N   1.0     0.270182     0.983828     0.465654  Biso 1.000000     N
    N   1.0     0.627669     0.467469     0.494172  Biso 1.000000     N
    N   1.0     0.770176     0.483835     0.534396  Biso 1.000000     N
    N   1.0     0.770152     0.016337     0.034355  Biso 1.000000     N
    N   1.0     0.467402     0.872426     0.494183  Biso 1.000000     N
    N   1.0     0.608646     0.982719     0.036899  Biso 1.000000     N
    N   1.0     0.372445     0.967422     0.005830  Biso 1.000000     N
    N   1.0     0.032450     0.627507     0.494199  Biso 1.000000     N
    N   1.0     0.391392     0.017323     0.963126  Biso 1.000000     N
    N   1.0     0.017438     0.391333     0.463046  Biso 1.000000     N
    N   1.0     0.108688     0.482555     0.963058  Biso 1.000000     N
    N   1.0     0.516185     0.229821     0.965655  Biso 1.000000     N
    N   1.0     0.891382     0.982739     0.536954  Biso 1.000000     N
    N   1.0     0.982591     0.891404     0.036908  Biso 1.000000     N
    N   1.0     0.372369     0.532569     0.505851  Biso 1.000000     N
    N   1.0     0.517355     0.891422     0.536899  Biso 1.000000     N
    N   1.0     0.467509     0.627463     0.994220  Biso 1.000000     N
    N   1.0     0.608666     0.517497     0.536926  Biso 1.000000     N
    N   1.0     0.729859     0.016218     0.534372  Biso 1.000000     N
    N   1.0     0.483685     0.729898     0.534367  Biso 1.000000     N
    N   1.0     0.229885     0.983707     0.965671  Biso 1.000000     N
    N   1.0     0.872516     0.467565     0.994201  Biso 1.000000     N
    N   1.0     0.127523     0.532474     0.005823  Biso 1.000000     N
    N   1.0     0.891351     0.517484     0.036966  Biso 1.000000     N
    O   1.0     0.554115     0.866526     0.132952  Biso 1.000000     O
    O   1.0     0.045867     0.583591     0.382987  Biso 1.000000     O
    O   1.0     0.454169     0.583558     0.882983  Biso 1.000000     O
    O   1.0     0.554024     0.633641     0.633029  Biso 1.000000     O
    O   1.0     0.083525     0.954204     0.617058  Biso 1.000000     O
    O   1.0     0.545867     0.416478     0.117041  Biso 1.000000     O
    O   1.0     0.445925     0.133511     0.867070  Biso 1.000000     O
    O   1.0     0.045886     0.916459     0.882944  Biso 1.000000     O
    O   1.0     0.454163     0.916477     0.382922  Biso 1.000000     O
    O   1.0     0.054047     0.366471     0.866922  Biso 1.000000     O
    O   1.0     0.054123     0.133452     0.366974  Biso 1.000000     O
    O   1.0     0.133636     0.054008     0.867025  Biso 1.000000     O
    O   1.0     0.583584     0.454144     0.382946  Biso 1.000000     O
    O   1.0     0.633569     0.945963     0.632953  Biso 1.000000     O
    O   1.0     0.916513     0.045832     0.382964  Biso 1.000000     O
    O   1.0     0.416489     0.954200     0.117088  Biso 1.000000     O
    O   1.0     0.083566     0.545866     0.117031  Biso 1.000000     O
    O   1.0     0.366550     0.445909     0.866960  Biso 1.000000     O
    O   1.0     0.916471     0.454169     0.882992  Biso 1.000000     O
    O   1.0     0.545872     0.083558     0.617101  Biso 1.000000     O
    O   1.0     0.945989     0.633562     0.133098  Biso 1.000000     O
    O   1.0     0.366465     0.054071     0.367070  Biso 1.000000     O
    O   1.0     0.583548     0.045834     0.882935  Biso 1.000000     O
    O   1.0     0.446017     0.366393     0.366990  Biso 1.000000     O
    O   1.0     0.954149     0.083579     0.117078  Biso 1.000000     O
    O   1.0     0.416453     0.545893     0.617078  Biso 1.000000     O
    O   1.0     0.866405     0.946028     0.132998  Biso 1.000000     O
    O   1.0     0.133542     0.445962     0.366909  Biso 1.000000     O
    O   1.0     0.866494     0.554074     0.633110  Biso 1.000000     O
    O   1.0     0.954166     0.416443     0.617036  Biso 1.000000     O
    O   1.0     0.633486     0.554129     0.133059  Biso 1.000000     O
    O   1.0     0.945914     0.866587     0.633049  Biso 1.000000     O
   Zn   1.0     0.583391     0.021736     0.554450  Biso 1.000000    Zn
   Zn   1.0     0.521711     0.083353     0.945575  Biso 1.000000    Zn
   Zn   1.0     0.416643     0.978303     0.445571  Biso 1.000000    Zn
   Zn   1.0     0.521774     0.416574     0.445544  Biso 1.000000    Zn
   Zn   1.0     0.083434     0.521623     0.445506  Biso 1.000000    Zn
   Zn   1.0     0.021630     0.583449     0.054505  Biso 1.000000    Zn
   Zn   1.0     0.416649     0.521598     0.945534  Biso 1.000000    Zn
   Zn   1.0     0.978407     0.416586     0.945516  Biso 1.000000    Zn
   Zn   1.0     0.478263     0.583461     0.554477  Biso 1.000000    Zn
   Zn   1.0     0.978446     0.083343     0.445534  Biso 1.000000    Zn
   Zn   1.0     0.916588     0.021779     0.054460  Biso 1.000000    Zn
   Zn   1.0     0.478326     0.916681     0.054446  Biso 1.000000    Zn
   Zn   1.0     0.083447     0.978260     0.945561  Biso 1.000000    Zn
   Zn   1.0     0.583386     0.478438     0.054487  Biso 1.000000    Zn
   Zn   1.0     0.916601     0.478413     0.554516  Biso 1.000000    Zn
   Zn   1.0     0.021592     0.916691     0.554487  Biso 1.000000    Zn
