#======================================================================

# CRYSTAL DATA

#----------------------------------------------------------------------

data_VESTA_phase_1


_pd_phase_name                         MOF
_cell_length_a                         12.36100
_cell_length_b                         12.16500
_cell_length_c                         14.03000
_cell_angle_alpha                      90.33500
_cell_angle_beta                       90.03400
_cell_angle_gamma                      89.97700
_symmetry_space_group_name_H-M         "P 1"
_symmetry_Int_Tables_number            1

loop_
_symmetry_equiv_pos_as_xyz
   "x, y, z"

loop_
   _atom_site_label
   _atom_site_occupancy
   _atom_site_fract_x
   _atom_site_fract_y
   _atom_site_fract_z
   _atom_site_adp_type
   _atom_site_B_iso_or_equiv
   _atom_site_type_symbol
    H   1.0     0.420494     0.608440     0.172204  Biso 1.000000     H
    H   1.0     0.317967     0.716468     0.292432  Biso 1.000000     H
    H   1.0     0.522319     0.622837     0.511202  Biso 1.000000     H
    H   1.0     0.635151     0.509209     0.400413  Biso 1.000000     H
    H   1.0     0.665282     0.429887     0.248096  Biso 1.000000     H
    H   1.0     0.530472     0.518269     0.079643  Biso 1.000000     H
    H   1.0     0.419493     0.893122     0.828001  Biso 1.000000     H
    H   1.0     0.316752     0.785266     0.707747  Biso 1.000000     H
    H   1.0     0.522184     0.876815     0.489370  Biso 1.000000     H
    H   1.0     0.635383     0.990049     0.600207  Biso 1.000000     H
    H   1.0     0.665651     0.069498     0.752626  Biso 1.000000     H
    H   1.0     0.531195     0.981025     0.921025  Biso 1.000000     H
    H   1.0     0.921166     0.111060     0.327905  Biso 1.000000     H
    H   1.0     0.820577     0.219566     0.207520  Biso 1.000000     H
    H   1.0     0.025427     0.122194     0.989577  Biso 1.000000     H
    H   1.0     0.136264     0.008048     0.100576  Biso 1.000000     H
    H   1.0     0.165292     0.930446     0.252568  Biso 1.000000     H
    H   1.0     0.028487     0.018746     0.420555  Biso 1.000000     H
    H   1.0     0.921312     0.388834     0.671925  Biso 1.000000     H
    H   1.0     0.820094     0.281062     0.792181  Biso 1.000000     H
    H   1.0     0.025006     0.377725     0.010484  Biso 1.000000     H
    H   1.0     0.136579     0.491047     0.899578  Biso 1.000000     H
    H   1.0     0.165709     0.568777     0.747628  Biso 1.000000     H
    H   1.0     0.029396     0.480115     0.579351  Biso 1.000000     H
    H   1.0     0.078825     0.888932     0.672066  Biso 1.000000     H
    H   1.0     0.179421     0.780430     0.792449  Biso 1.000000     H
    H   1.0     0.974577     0.877798     0.010397  Biso 1.000000     H
    H   1.0     0.863731     0.991939     0.899400  Biso 1.000000     H
    H   1.0     0.834699     0.069544     0.747408  Biso 1.000000     H
    H   1.0     0.971513     0.981254     0.579421  Biso 1.000000     H
    H   1.0     0.078678     0.611174     0.328042  Biso 1.000000     H
    H   1.0     0.179903     0.718943     0.207789  Biso 1.000000     H
    H   1.0     0.974998     0.622284     0.989481  Biso 1.000000     H
    H   1.0     0.863417     0.508966     0.100383  Biso 1.000000     H
    H   1.0     0.834281     0.431235     0.252334  Biso 1.000000     H
    H   1.0     0.970606     0.519885     0.420609  Biso 1.000000     H
    H   1.0     0.579498     0.391549     0.827766  Biso 1.000000     H
    H   1.0     0.682032     0.283526     0.707539  Biso 1.000000     H
    H   1.0     0.477686     0.377156     0.488765  Biso 1.000000     H
    H   1.0     0.364846     0.490779     0.599553  Biso 1.000000     H
    H   1.0     0.334709     0.570098     0.751872  Biso 1.000000     H
    H   1.0     0.469533     0.481732     0.920322  Biso 1.000000     H
    H   1.0     0.580496     0.106885     0.171973  Biso 1.000000     H
    H   1.0     0.683245     0.214738     0.292223  Biso 1.000000     H
    H   1.0     0.477823     0.123191     0.510609  Biso 1.000000     H
    H   1.0     0.364615     0.009961     0.399775  Biso 1.000000     H
    H   1.0     0.334339     0.930512     0.247354  Biso 1.000000     H
    H   1.0     0.468805     0.018977     0.078957  Biso 1.000000     H
    C   1.0     0.446863     0.608423     0.246369  Biso 1.000000     C
    C   1.0     0.388461     0.668549     0.312811  Biso 1.000000     C
    C   1.0     0.502706     0.617064     0.435574  Biso 1.000000     C
    C   1.0     0.565342     0.554441     0.373732  Biso 1.000000     C
    C   1.0     0.537613     0.547581     0.276458  Biso 1.000000     C
    C   1.0     0.603037     0.478883     0.213022  Biso 1.000000     C
    C   1.0     0.592528     0.471773     0.117523  Biso 1.000000     C
    C   1.0     0.661586     0.400102     0.056337  Biso 1.000000     C
    C   1.0     0.446165     0.892544     0.753946  Biso 1.000000     C
    C   1.0     0.387609     0.832577     0.687466  Biso 1.000000     C
    C   1.0     0.502453     0.882931     0.564937  Biso 1.000000     C
    C   1.0     0.565277     0.945353     0.626821  Biso 1.000000     C
    C   1.0     0.537437     0.952541     0.724033  Biso 1.000000     C
    C   1.0     0.603277     0.020702     0.787610  Biso 1.000000     C
    C   1.0     0.593248     0.027405     0.883169  Biso 1.000000     C
    C   1.0     0.663237     0.098135     0.944410  Biso 1.000000     C
    C   1.0     0.948029     0.110424     0.253916  Biso 1.000000     C
    C   1.0     0.890716     0.170715     0.187417  Biso 1.000000     C
    C   1.0     0.005283     0.117160     0.065092  Biso 1.000000     C
    C   1.0     0.066830     0.054327     0.127012  Biso 1.000000     C
    C   1.0     0.038317     0.048417     0.224052  Biso 1.000000     C
    C   1.0     0.102690     0.979516     0.287478  Biso 1.000000     C
    C   1.0     0.091010     0.972363     0.382781  Biso 1.000000     C
    C   1.0     0.159845     0.901024     0.443725  Biso 1.000000     C
    C   1.0     0.948113     0.389412     0.745962  Biso 1.000000     C
    C   1.0     0.890427     0.329536     0.812411  Biso 1.000000     C
    C   1.0     0.005043     0.382715     0.934908  Biso 1.000000     C
    C   1.0     0.066969     0.445106     0.873043  Biso 1.000000     C
    C   1.0     0.038647     0.450982     0.775916  Biso 1.000000     C
    C   1.0     0.103252     0.519652     0.712562  Biso 1.000000     C
    C   1.0     0.091760     0.526659     0.617213  Biso 1.000000     C
    C   1.0     0.160285     0.598211     0.556267  Biso 1.000000     C
    C   1.0     0.051965     0.889568     0.746056  Biso 1.000000     C
    C   1.0     0.109281     0.829279     0.812553  Biso 1.000000     C
    C   1.0     0.994717     0.882832     0.934881  Biso 1.000000     C
    C   1.0     0.933167     0.945663     0.872963  Biso 1.000000     C
    C   1.0     0.961676     0.951573     0.775921  Biso 1.000000     C
    C   1.0     0.897303     0.020476     0.712497  Biso 1.000000     C
    C   1.0     0.908988     0.027635     0.617195  Biso 1.000000     C
    C   1.0     0.840158     0.098978     0.556252  Biso 1.000000     C
    C   1.0     0.051879     0.610597     0.254005  Biso 1.000000     C
    C   1.0     0.109570     0.670471     0.187557  Biso 1.000000     C
    C   1.0     0.994958     0.617294     0.065057  Biso 1.000000     C
    C   1.0     0.933027     0.554905     0.126920  Biso 1.000000     C
    C   1.0     0.961346     0.549028     0.224048  Biso 1.000000     C
    C   1.0     0.896740     0.480357     0.287401  Biso 1.000000     C
    C   1.0     0.908239     0.473344     0.382749  Biso 1.000000     C
    C   1.0     0.839718     0.401790     0.443696  Biso 1.000000     C
    C   1.0     0.553132     0.391567     0.753600  Biso 1.000000     C
    C   1.0     0.611537     0.331444     0.687159  Biso 1.000000     C
    C   1.0     0.497295     0.382928     0.564394  Biso 1.000000     C
    C   1.0     0.434655     0.445549     0.626235  Biso 1.000000     C
    C   1.0     0.462382     0.452407     0.723510  Biso 1.000000     C
    C   1.0     0.396957     0.521107     0.786945  Biso 1.000000     C
    C   1.0     0.407473     0.528223     0.882444  Biso 1.000000     C
    C   1.0     0.338419     0.599897     0.943630  Biso 1.000000     C
    C   1.0     0.553827     0.107463     0.246029  Biso 1.000000     C
    C   1.0     0.612388     0.167427     0.312508  Biso 1.000000     C
    C   1.0     0.497549     0.117075     0.435041  Biso 1.000000     C
    C   1.0     0.434721     0.054655     0.373159  Biso 1.000000     C
    C   1.0     0.462556     0.047467     0.275946  Biso 1.000000     C
    C   1.0     0.396715     0.979305     0.212370  Biso 1.000000     C
    C   1.0     0.406749     0.972599     0.116812  Biso 1.000000     C
    C   1.0     0.336766     0.901867     0.055568  Biso 1.000000     C
    N   1.0     0.414046     0.672657     0.406702  Biso 1.000000     N
    N   1.0     0.413474     0.827916     0.593684  Biso 1.000000     N
    N   1.0     0.917043     0.173871     0.093725  Biso 1.000000     N
    N   1.0     0.916563     0.326445     0.906181  Biso 1.000000     N
    N   1.0     0.082960     0.826124     0.906246  Biso 1.000000     N
    N   1.0     0.083438     0.673560     0.093786  Biso 1.000000     N
    N   1.0     0.585957     0.327339     0.593268  Biso 1.000000     N
    N   1.0     0.586529     0.172088     0.406290  Biso 1.000000     N
    O   1.0     0.638780     0.389281     0.969806  Biso 1.000000     O
    O   1.0     0.744594     0.351911     0.096008  Biso 1.000000     O
    O   1.0     0.642942     0.106390     0.031633  Biso 1.000000     O
    O   1.0     0.744535     0.148210     0.903945  Biso 1.000000     O
    O   1.0     0.138336     0.892491     0.530597  Biso 1.000000     O
    O   1.0     0.241479     0.850669     0.403580  Biso 1.000000     O
    O   1.0     0.138581     0.606644     0.469408  Biso 1.000000     O
    O   1.0     0.241726     0.648934     0.596403  Biso 1.000000     O
    O   1.0     0.861673     0.107517     0.469381  Biso 1.000000     O
    O   1.0     0.758524     0.149334     0.596394  Biso 1.000000     O
    O   1.0     0.861429     0.393355     0.530553  Biso 1.000000     O
    O   1.0     0.758275     0.351066     0.403564  Biso 1.000000     O
    O   1.0     0.361230     0.610720     0.030159  Biso 1.000000     O
    O   1.0     0.255411     0.648089     0.903962  Biso 1.000000     O
    O   1.0     0.357070     0.893609     0.968347  Biso 1.000000     O
    O   1.0     0.255465     0.851791     0.096029  Biso 1.000000     O
   Zn   1.0     0.810105     0.249971     0.000017  Biso 1.000000    Zn
   Zn   1.0     0.306034     0.749975     0.500092  Biso 1.000000    Zn
   Zn   1.0     0.693976     0.250026     0.499878  Biso 1.000000    Zn
   Zn   1.0     0.189900     0.750032    -0.000017  Biso 1.000000    Zn
