#======================================================================

# CRYSTAL DATA

#----------------------------------------------------------------------

data_VESTA_phase_1


_pd_phase_name                         MOF
_cell_length_a                         16.62200
_cell_length_b                         16.62200
_cell_length_c                         23.20100
_cell_angle_alpha                      99.80800
_cell_angle_beta                       99.80800
_cell_angle_gamma                      114.35400
_symmetry_space_group_name_H-M         "P 1"
_symmetry_Int_Tables_number            1

loop_
_symmetry_equiv_pos_as_xyz
   "x, y, z"

loop_
   _atom_site_label
   _atom_site_occupancy
   _atom_site_fract_x
   _atom_site_fract_y
   _atom_site_fract_z
   _atom_site_adp_type
   _atom_site_B_iso_or_equiv
   _atom_site_type_symbol
    H   1.0     0.952411     0.130942     0.923540  Biso 1.000000     H
    H   1.0     0.881008     0.760863     0.960408  Biso 1.000000     H
    H   1.0     0.077413     0.737218     0.069786  Biso 1.000000     H
    H   1.0     0.375468     0.784520     0.529483  Biso 1.000000     H
    H   1.0     0.270594     0.695779     0.307128  Biso 1.000000     H
    H   1.0     0.789588     0.798996     0.891525  Biso 1.000000     H
    H   1.0     0.136437     0.752823     0.272650  Biso 1.000000     H
    H   1.0     0.213227     0.669915     0.471542  Biso 1.000000     H
    H   1.0     0.755067     0.133133     0.467592  Biso 1.000000     H
    H   1.0     0.471136     0.025799     0.732132  Biso 1.000000     H
    H   1.0     0.864729     0.577280     0.913992  Biso 1.000000     H
    H   1.0     0.704343     0.889164     0.873501  Biso 1.000000     H
    H   1.0     0.439991     0.998872     0.993834  Biso 1.000000     H
    H   1.0     0.963755     0.305650     0.304581  Biso 1.000000     H
    H   1.0     0.090774     0.752759     0.164281  Biso 1.000000     H
    H   1.0     0.433468     0.806621     0.356883  Biso 1.000000     H
    H   1.0     0.697296     0.269419     0.810584  Biso 1.000000     H
    H   1.0     0.996897     0.433970     0.490382  Biso 1.000000     H
    H   1.0     0.138536     0.758218     0.971018  Biso 1.000000     H
    H   1.0     0.953833     0.078252     0.395153  Biso 1.000000     H
    H   1.0     0.753624     0.134640     0.776094  Biso 1.000000     H
    H   1.0     0.463295     0.974404     0.621292  Biso 1.000000     H
    H   1.0     0.737894     0.075641     0.573212  Biso 1.000000     H
    H   1.0     0.578607     0.861758     0.410515  Biso 1.000000     H
    H   1.0     0.761825     0.877064     0.456930  Biso 1.000000     H
    H   1.0     0.312070     0.966118     0.808023  Biso 1.000000     H
    H   1.0     0.799467     0.785182     0.388056  Biso 1.000000     H
    H   1.0     0.041632     0.033848     0.443401  Biso 1.000000     H
    H   1.0     0.921234     0.282828     0.509290  Biso 1.000000     H
    H   1.0     0.035528     0.043853     0.946822  Biso 1.000000     H
    H   1.0     0.133633     0.952121     0.420069  Biso 1.000000     H
    H   1.0     0.782870     0.370025     0.026118  Biso 1.000000     H
    H   1.0     0.084956     0.957640     0.898589  Biso 1.000000     H
    H   1.0     0.026182     0.470229     0.228625  Biso 1.000000     H
    H   1.0     0.972707     0.457012     0.117822  Biso 1.000000     H
    H   1.0     0.288726     0.923969     0.000000  Biso 1.000000     H
    H   1.0     0.753395     0.088900     0.667699  Biso 1.000000     H
    H   1.0     0.158112     0.891333     0.827007  Biso 1.000000     H
    H   1.0     0.671275     0.212202     0.975018  Biso 1.000000     H
    H   1.0     0.888208     0.151797     0.323578  Biso 1.000000     H
    H   1.0     0.808821     0.432084     0.860334  Biso 1.000000     H
    H   1.0     0.888973     0.699216     0.370011  Biso 1.000000     H
    H   1.0     0.340589     0.796726     0.031811  Biso 1.000000     H
    H   1.0     0.853746     0.117591     0.179819  Biso 1.000000     H
    H   1.0     0.985683     0.538706     0.778206  Biso 1.000000     H
    H   1.0     0.314571     0.739509     0.196246  Biso 1.000000     H
    H   1.0     0.048099     0.703276     0.702242  Biso 1.000000     H
    H   1.0     0.699786     0.042805     0.198800  Biso 1.000000     H
    H   1.0     0.636397     0.224413     0.477346  Biso 1.000000     H
    H   1.0     0.571872     0.010054     0.012988  Biso 1.000000     H
    H   1.0     0.123651     0.857131     0.683249  Biso 1.000000     H
    H   1.0     0.250042     0.131869     0.549900  Biso 1.000000     H
    H   1.0     0.578395     0.202310     0.649946  Biso 1.000000     H
    H   1.0     0.147132     0.431647     0.092837  Biso 1.000000     H
    H   1.0     0.203043     0.576845     0.146496  Biso 1.000000     H
    H   1.0     0.970234     0.975085     0.563425  Biso 1.000000     H
    H   1.0     0.307520     0.119760     0.133316  Biso 1.000000     H
    H   1.0     0.934453     0.271710     0.937041  Biso 1.000000     H
    H   1.0     0.212398     0.223752     0.618775  Biso 1.000000     H
    H   1.0     0.926906     0.051288     0.108241  Biso 1.000000     H
    H   1.0     0.258238     0.874292     0.230734  Biso 1.000000     H
    H   1.0     0.976333     0.965073     0.060000  Biso 1.000000     H
    H   1.0     0.090629     0.726107     0.497536  Biso 1.000000     H
    H   1.0     0.798638     0.339016     0.535288  Biso 1.000000     H
    H   1.0     0.273972     0.933285     0.433618  Biso 1.000000     H
    H   1.0     0.258467     0.920036     0.339129  Biso 1.000000     H
    H   1.0     0.256795     0.875797     0.539236  Biso 1.000000     H
    H   1.0     0.540727     0.983126     0.274696  Biso 1.000000     H
    H   1.0     0.548568     0.034525     0.385536  Biso 1.000000     H
    H   1.0     0.875428     0.256110     0.734178  Biso 1.000000     H
    H   1.0     0.228992     0.638903     0.980712  Biso 1.000000     H
    H   1.0     0.059452     0.877981     0.083272  Biso 1.000000     H
    H   1.0     0.433260     0.147166     0.596316  Biso 1.000000     H
    H   1.0     0.058032     0.930682     0.611676  Biso 1.000000     H
    H   1.0     0.014963     0.574963     0.516441  Biso 1.000000     H
    H   1.0     0.921090     0.256171     0.842546  Biso 1.000000     H
    H   1.0     0.723138     0.084957    -0.005910  Biso 1.000000     H
    H   1.0     0.741268     0.313150     0.699701  Biso 1.000000     H
    H   1.0     0.122890     0.309718     0.636815  Biso 1.000000     H
    H   1.0     0.222273     0.209930     0.115300  Biso 1.000000     H
    H   1.0     0.878230     0.056811     0.586751  Biso 1.000000     H
    H   1.0     0.130854     0.248063     0.046420  Biso 1.000000     H
    H   1.0     0.873325     0.250707     0.035809  Biso 1.000000     H
    H   1.0     0.039158     0.551919     0.889008  Biso 1.000000     H
    C   1.0     0.867618     0.973415     0.425522  Biso 1.000000     C
    C   1.0     0.031356     0.471652     0.385584  Biso 1.000000     C
    C   1.0     0.531356     0.038458     0.715239  Biso 1.000000     C
    C   1.0     0.059835     0.916052     0.413237  Biso 1.000000     C
    C   1.0     0.717668     0.295753     0.859838  Biso 1.000000     C
    C   1.0     0.604232     0.023475     0.635315  Biso 1.000000     C
    C   1.0     0.092775     0.787880     0.958485  Biso 1.000000     C
    C   1.0     0.305863     0.956895     0.852708  Biso 1.000000     C
    C   1.0     0.923187     0.773805     0.385335  Biso 1.000000     C
    C   1.0     0.917662     0.918700     0.415586  Biso 1.000000     C
    C   1.0     0.061897     0.899453     0.917992  Biso 1.000000     C
    C   1.0     0.873646     0.822368     0.396193  Biso 1.000000     C
    C   1.0     0.779746     0.386744     0.888042  Biso 1.000000     C
    C   1.0     0.074215     0.688088     0.176064  Biso 1.000000     C
    C   1.0     0.121431     0.861816     0.932628  Biso 1.000000     C
    C   1.0     0.388045     0.777716     0.384584  Biso 1.000000     C
    C   1.0     0.954436     0.299554     0.349264  Biso 1.000000     C
    C   1.0     0.220274     0.915185     0.863482  Biso 1.000000     C
    C   1.0     0.472392     0.030956     0.889040  Biso 1.000000     C
    C   1.0     0.512164     0.877563     0.481733  Biso 1.000000     C
    C   1.0     0.895625     0.055477     0.414556  Biso 1.000000     C
    C   1.0     0.000000     0.749466     0.966157  Biso 1.000000     C
    C   1.0     0.977325     0.669432     0.992002  Biso 1.000000     C
    C   1.0     0.704607     0.263791     0.952118  Biso 1.000000     C
    C   1.0     0.820227     0.013094     0.896051  Biso 1.000000     C
    C   1.0     0.770257     0.067245     0.880686  Biso 1.000000     C
    C   1.0     0.986120     0.379643     0.396201  Biso 1.000000     C
    C   1.0     0.807806     0.416987     0.951660  Biso 1.000000     C
    C   1.0     0.972834     0.372544     0.453552  Biso 1.000000     C
    C   1.0     0.778931     0.923065     0.888814  Biso 1.000000     C
    C   1.0     0.101685     0.689185     0.236282  Biso 1.000000     C
    C   1.0     0.977738     0.866304     0.928967  Biso 1.000000     C
    C   1.0     0.018071     0.672684     0.043534  Biso 1.000000     C
    C   1.0     0.000000     0.523735     0.150845  Biso 1.000000     C
    C   1.0     0.912304     0.214026     0.360045  Biso 1.000000     C
    C   1.0     0.988730     0.597192     0.067814  Biso 1.000000     C
    C   1.0     0.784425     0.087092     0.455050  Biso 1.000000     C
    C   1.0     0.292942     0.931486     0.967421  Biso 1.000000     C
    C   1.0     0.015344     0.820258     0.392566  Biso 1.000000     C
    C   1.0     0.039163     0.530512     0.211754  Biso 1.000000     C
    C   1.0     0.880077     0.510664     0.985184  Biso 1.000000     C
    C   1.0     0.264902     0.703060     0.448649  Biso 1.000000     C
    C   1.0     0.948089     0.788394     0.951274  Biso 1.000000     C
    C   1.0     0.530040     0.000000     0.654313  Biso 1.000000     C
    C   1.0     0.671107     0.974138     0.488551  Biso 1.000000     C
    C   1.0     0.789683     0.944148     0.447818  Biso 1.000000     C
    C   1.0     0.418324     0.805649     0.448202  Biso 1.000000     C
    C   1.0     0.689975     0.100177     0.739735  Biso 1.000000     C
    C   1.0     0.000000     0.964325     0.425307  Biso 1.000000     C
    C   1.0     0.024623     0.603583     0.131874  Biso 1.000000     C
    C   1.0     0.688775     0.072665     0.679499  Biso 1.000000     C
    C   1.0     0.603250     0.989640     0.571230  Biso 1.000000     C
    C   1.0     0.858382     0.115370     0.429192  Biso 1.000000     C
    C   1.0     0.378625     0.975072     0.957004  Biso 1.000000     C
    C   1.0     0.969463     0.000000     0.928748  Biso 1.000000     C
    C   1.0     0.212731     0.902051     0.921009  Biso 1.000000     C
    C   1.0     0.296938     0.716022     0.356378  Biso 1.000000     C
    C   1.0     0.354441     0.765487     0.480094  Biso 1.000000     C
    C   1.0     0.385873     0.988253     0.899651  Biso 1.000000     C
    C   1.0     0.767399     0.353211     0.983559  Biso 1.000000     C
    C   1.0     0.586316     0.900139     0.455843  Biso 1.000000     C
    C   1.0     0.923424     0.916741     0.919030  Biso 1.000000     C
    C   1.0     0.827092     0.873147     0.899658  Biso 1.000000     C
    C   1.0     0.751151     0.000000     0.462704  Biso 1.000000     C
    C   1.0     0.916023     0.057166     0.916702  Biso 1.000000     C
    C   1.0     0.069077     0.769850     0.377139  Biso 1.000000     C
    C   1.0     0.928826     0.286934     0.463976  Biso 1.000000     C
    C   1.0     0.903031     0.584836     0.959307  Biso 1.000000     C
    C   1.0     0.899055     0.206634     0.417570  Biso 1.000000     C
    C   1.0     0.673196     0.016532     0.546939  Biso 1.000000     C
    C   1.0     0.307257     0.745137     0.054712  Biso 1.000000     C
    C   1.0     0.718920     0.077440     0.039403  Biso 1.000000     C
    C   1.0     0.088438     0.092185     0.087794  Biso 1.000000     C
    C   1.0     0.987242     0.405348     0.874955  Biso 1.000000     C
    C   1.0     0.083037     0.722000     0.542850  Biso 1.000000     C
    C   1.0     0.023133     0.411737     0.939014  Biso 1.000000     C
    C   1.0     0.340757     0.034793     0.518278  Biso 1.000000     C
    C   1.0     0.890431     0.147112     0.074200  Biso 1.000000     C
    C   1.0     0.232119     0.622185     0.118788  Biso 1.000000     C
    C   1.0     0.481823    -0.003294     0.352515  Biso 1.000000     C
    C   1.0     0.042398    -0.003595     0.078075  Biso 1.000000     C
    C   1.0     0.204057     0.591942     0.055170  Biso 1.000000     C
    C   1.0     0.625986     0.020670     0.107173  Biso 1.000000     C
    C   1.0     0.499699     0.131369     0.525095  Biso 1.000000     C
    C   1.0     0.241607     0.941684     0.126138  Biso 1.000000     C
    C   1.0     0.937650     0.320844     0.830763  Biso 1.000000     C
    C   1.0     0.539466     0.977965     0.117782  Biso 1.000000     C
    C   1.0     0.480507     0.970471     0.291590  Biso 1.000000     C
    C   1.0     0.144246     0.035516     0.581309  Biso 1.000000     C
    C   1.0     0.294198     0.713176     0.146992  Biso 1.000000     C
    C   1.0     0.993792     0.336244     0.963294  Biso 1.000000     C
    C   1.0     0.005153     0.259463     0.040672  Biso 1.000000     C
    C   1.0     0.425549     0.108790     0.550986  Biso 1.000000     C
    C   1.0     0.407630     0.985457     0.371512  Biso 1.000000     C
    C   1.0     0.131785     0.498265     0.021646  Biso 1.000000     C
    C   1.0     0.952030     0.092880     0.593590  Biso 1.000000     C
    C   1.0     0.232931     0.085859     0.118006  Biso 1.000000     C
    C   1.0     0.244464     0.655717     0.023271  Biso 1.000000     C
    C   1.0     0.116240     0.953454     0.592274  Biso 1.000000     C
    C   1.0     0.746963     0.305872     0.558181  Biso 1.000000     C
    C   1.0    -0.001598     0.044608     0.581520  Biso 1.000000     C
    C   1.0     0.996517     0.188674     0.614255  Biso 1.000000     C
    C   1.0     0.034538     0.339495     0.014826  Biso 1.000000     C
    C   1.0     0.094205     0.090234     0.591244  Biso 1.000000     C
    C   1.0     0.657425     0.243443     0.526735  Biso 1.000000     C
    C   1.0     0.153484     0.893562     0.577636  Biso 1.000000     C
    C   1.0     0.321887     0.908754     0.267093  Biso 1.000000     C
    C   1.0     0.408613     0.019294     0.435598  Biso 1.000000     C
    C   1.0     0.949964     0.109474     0.088835  Biso 1.000000     C
    C   1.0     0.593540     0.203282     0.558626  Biso 1.000000     C
    C   1.0     0.099556     0.794904     0.646781  Biso 1.000000     C
    C   1.0     0.705995     0.052028     0.154116  Biso 1.000000     C
    C   1.0     0.260713     0.005799     0.544125  Biso 1.000000     C
    C   1.0     0.323087     0.936266     0.327328  Biso 1.000000     C
    C   1.0     0.338668     0.992399     0.459890  Biso 1.000000     C
    C   1.0     0.034124     0.142624     0.077863  Biso 1.000000     C
    C   1.0     0.088676     0.235128     0.621494  Biso 1.000000     C
    C   1.0     0.025738     0.629287     0.610622  Biso 1.000000     C
    C   1.0     0.095838     0.951758     0.090115  Biso 1.000000     C
    C   1.0     0.191635     0.995828     0.110759  Biso 1.000000     C
    C   1.0     0.039030     0.636388     0.553273  Biso 1.000000     C
    C   1.0     0.063773     0.220532     0.055553  Biso 1.000000     C
    C   1.0     0.919087     0.221045     0.048341  Biso 1.000000     C
    C   1.0     0.942790     0.239083     0.629696  Biso 1.000000     C
    C   1.0     0.633236     0.033852     0.049820  Biso 1.000000     C
    C   1.0     0.714925     0.292908     0.650451  Biso 1.000000     C
    C   1.0     0.980513     0.537276     0.621239  Biso 1.000000     C
    C   1.0     0.623819     0.231212     0.622245  Biso 1.000000     C
    C   1.0     0.910181     0.319748     0.770546  Biso 1.000000     C
    C   1.0     0.001018     0.485196     0.855985  Biso 1.000000     C
    C   1.0     0.112807     0.802298     0.589258  Biso 1.000000     C
    C   1.0     0.222180     0.064786     0.559013  Biso 1.000000     C
    C   1.0     0.108830     0.424092     0.047522  Biso 1.000000     C
    C   1.0     0.138219     0.186566     0.610637  Biso 1.000000     C
    C   1.0     0.799129     0.106875     0.085817  Biso 1.000000     C
    C   1.0     0.227441     0.921842     0.551778  Biso 1.000000     C
    C   1.0     0.791585     0.093740     0.143343  Biso 1.000000     C
    C   1.0     0.184770     0.135778     0.107166  Biso 1.000000     C
    C   1.0     0.057424     0.709374     0.657561  Biso 1.000000     C
    C   1.0     0.972702     0.478422     0.795076  Biso 1.000000     C
    N   1.0     0.084592     0.612015     0.254421  Biso 1.000000     N
    N   1.0     0.681045     0.234450     0.890866  Biso 1.000000     N
    N   1.0     0.612882     0.083503     0.757893  Biso 1.000000     N
    N   1.0     0.919284     0.515249     0.035434  Biso 1.000000     N
    N   1.0     0.521135     0.920482     0.538842  Biso 1.000000     N
    N   1.0     0.235542     0.679646     0.387402  Biso 1.000000     N
    N   1.0     0.330820     0.774479     0.115964  Biso 1.000000     N
    N   1.0     0.776321     0.329287     0.619428  Biso 1.000000     N
    N   1.0     0.092580     0.493679     0.971395  Biso 1.000000     N
    N   1.0     0.398981     0.925430     0.248936  Biso 1.000000     N
    N   1.0     0.927272     0.396918     0.752409  Biso 1.000000     N
    N   1.0     0.490728     0.088451     0.467986  Biso 1.000000     N
    O   1.0     0.149724     0.813276     0.373606  Biso 1.000000     O
    O   1.0     0.681979     0.024781     0.870826  Biso 1.000000     O
    O   1.0     0.031644     0.475528     0.330152  Biso 1.000000     O
    O   1.0     0.026303     0.681619     0.367416  Biso 1.000000     O
    O   1.0     0.476336     0.031217     0.833614  Biso 1.000000     O
    O   1.0     0.814066     0.147915     0.877320  Biso 1.000000     O
    O   1.0     0.544102     0.069292     0.932607  Biso 1.000000     O
    O   1.0     0.069991     0.543370     0.429154  Biso 1.000000     O
    O   1.0     0.329885     0.984150     0.136004  Biso 1.000000     O
    O   1.0     0.941866     0.465560     0.577668  Biso 1.000000     O
    O   1.0     0.197794     0.861001     0.129480  Biso 1.000000     O
    O   1.0     0.980212     0.533402     0.676670  Biso 1.000000     O
    O   1.0     0.862132     0.195653     0.633209  Biso 1.000000     O
    O   1.0     0.535523     0.977716     0.173209  Biso 1.000000     O
    O   1.0     0.467756     0.939637     0.074215  Biso 1.000000     O
    O   1.0     0.985559     0.327313     0.639412  Biso 1.000000     O
   Zn   1.0     0.095768     0.614038     0.347291  Biso 1.000000    Zn
   Zn   1.0     0.614857     0.094678     0.850740  Biso 1.000000    Zn
   Zn   1.0     0.916095     0.394895     0.659539  Biso 1.000000    Zn
   Zn   1.0     0.397004     0.914252     0.156089  Biso 1.000000    Zn
