#======================================================================

# CRYSTAL DATA

#----------------------------------------------------------------------

data_VESTA_phase_1


_pd_phase_name                         MOF
_cell_length_a                         17.49200
_cell_length_b                         12.06300
_cell_length_c                         24.12000
_cell_angle_alpha                      94.36900
_cell_angle_beta                       100.72100
_cell_angle_gamma                      90.11400
_symmetry_space_group_name_H-M         "P 1"
_symmetry_Int_Tables_number            1

loop_
_symmetry_equiv_pos_as_xyz
   "x, y, z"

loop_
   _atom_site_label
   _atom_site_occupancy
   _atom_site_fract_x
   _atom_site_fract_y
   _atom_site_fract_z
   _atom_site_adp_type
   _atom_site_B_iso_or_equiv
   _atom_site_type_symbol
    H   1.0     0.268965     0.176723     0.790729  Biso 1.000000     H
    H   1.0     0.769000     0.176641     0.790753  Biso 1.000000     H
    H   1.0     0.075355     0.243160     0.868302  Biso 1.000000     H
    H   1.0     0.575360     0.242942     0.868317  Biso 1.000000     H
    H   1.0     0.178062     0.512795     0.857183  Biso 1.000000     H
    H   1.0     0.677946     0.512649     0.857159  Biso 1.000000     H
    H   1.0     0.097478     0.461816     0.882163  Biso 1.000000     H
    H   1.0     0.597392     0.461634     0.882148  Biso 1.000000     H
    H   1.0     0.318679     0.459370     0.920288  Biso 1.000000     H
    H   1.0     0.818590     0.459360     0.920288  Biso 1.000000     H
    H   1.0     0.103837     0.496899     0.982074  Biso 1.000000     H
    H   1.0     0.603727     0.496855     0.982045  Biso 1.000000     H
    H   1.0     0.358653     0.309126     0.211238  Biso 1.000000     H
    H   1.0     0.858485     0.309147     0.211110  Biso 1.000000     H
    H   1.0     0.125093     0.260293     0.129410  Biso 1.000000     H
    H   1.0     0.624963     0.260125     0.129230  Biso 1.000000     H
    H   1.0     0.212756    -0.016389     0.136086  Biso 1.000000     H
    H   1.0     0.712733    -0.016458     0.135996  Biso 1.000000     H
    H   1.0     0.131921     0.052625     0.100872  Biso 1.000000     H
    H   1.0     0.631879     0.052448     0.100732  Biso 1.000000     H
    H   1.0     0.234831     0.196600     0.033478  Biso 1.000000     H
    H   1.0     0.734897     0.196311     0.033314  Biso 1.000000     H
    H   1.0     0.221082     0.847394     0.058139  Biso 1.000000     H
    H   1.0     0.720959     0.847168     0.058073  Biso 1.000000     H
    H   1.0     0.226702     0.820242     0.208944  Biso 1.000000     H
    H   1.0     0.726514     0.820373     0.208855  Biso 1.000000     H
    H   1.0     0.421098     0.754140     0.132168  Biso 1.000000     H
    H   1.0     0.921036     0.754170     0.132229  Biso 1.000000     H
    H   1.0     0.318647     0.484353     0.142978  Biso 1.000000     H
    H   1.0     0.818507     0.484438     0.142967  Biso 1.000000     H
    H   1.0     0.399115     0.535694     0.117992  Biso 1.000000     H
    H   1.0     0.898986     0.535765     0.117986  Biso 1.000000     H
    H   1.0     0.177892     0.537565     0.079862  Biso 1.000000     H
    H   1.0     0.677759     0.537621     0.079833  Biso 1.000000     H
    H   1.0     0.392739     0.500048     0.018086  Biso 1.000000     H
    H   1.0     0.892629     0.500144     0.018086  Biso 1.000000     H
    H   1.0     0.137561     0.688700     0.788936  Biso 1.000000     H
    H   1.0     0.637593     0.688197     0.788852  Biso 1.000000     H
    H   1.0     0.371243     0.737617     0.870507  Biso 1.000000     H
    H   1.0     0.871271     0.737077     0.870438  Biso 1.000000     H
    H   1.0     0.283348     0.000000     0.864093  Biso 1.000000     H
    H   1.0     0.783416     0.000000     0.864000  Biso 1.000000     H
    H   1.0     0.364371     0.945355     0.899075  Biso 1.000000     H
    H   1.0     0.864401     0.944796     0.899037  Biso 1.000000     H
    H   1.0     0.261709     0.801126     0.966762  Biso 1.000000     H
    H   1.0     0.761603     0.800722     0.966719  Biso 1.000000     H
    H   1.0     0.275447     0.150331     0.942104  Biso 1.000000     H
    H   1.0     0.775534     0.149856     0.941959  Biso 1.000000     H
    H   1.0     0.476647     0.749178     0.582868  Biso 1.000000     H
    H   1.0     0.976568     0.748459     0.582529  Biso 1.000000     H
    H   1.0     0.306988     0.991749     0.593372  Biso 1.000000     H
    H   1.0     0.807087     0.991244     0.593183  Biso 1.000000     H
    H   1.0     0.411611     0.651467     0.487116  Biso 1.000000     H
    H   1.0     0.911462     0.651013     0.486739  Biso 1.000000     H
    H   1.0     0.331293     0.717305     0.447987  Biso 1.000000     H
    H   1.0     0.831083     0.716866     0.447686  Biso 1.000000     H
    H   1.0     0.254601     0.666610     0.566735  Biso 1.000000     H
    H   1.0     0.754636     0.666329     0.566528  Biso 1.000000     H
    H   1.0     0.329696     0.487001     0.425731  Biso 1.000000     H
    H   1.0     0.829471     0.486478     0.425483  Biso 1.000000     H
    H   1.0     0.125365     0.153466     0.657768  Biso 1.000000     H
    H   1.0     0.625483     0.153939     0.657876  Biso 1.000000     H
    H   1.0     0.432342     0.200165     0.734434  Biso 1.000000     H
    H   1.0     0.932143     0.199450     0.734242  Biso 1.000000     H
    H   1.0     0.093727     0.472537     0.741422  Biso 1.000000     H
    H   1.0     0.593783     0.473300     0.741215  Biso 1.000000     H
    H   1.0     0.020220     0.248295     0.417251  Biso 1.000000     H
    H   1.0     0.520186     0.248128     0.417237  Biso 1.000000     H
    H   1.0     0.189536     0.005160     0.406855  Biso 1.000000     H
    H   1.0     0.689464     0.004972     0.406749  Biso 1.000000     H
    H   1.0     0.085333     0.345961     0.512895  Biso 1.000000     H
    H   1.0     0.585308     0.345653     0.512932  Biso 1.000000     H
    H   1.0     0.165656     0.280140     0.552042  Biso 1.000000     H
    H   1.0     0.665685     0.279857     0.552034  Biso 1.000000     H
    H   1.0     0.242298     0.330716     0.433171  Biso 1.000000     H
    H   1.0     0.742093     0.330260     0.433060  Biso 1.000000     H
    H   1.0     0.167187     0.510338     0.574173  Biso 1.000000     H
    H   1.0     0.667259     0.510112     0.574114  Biso 1.000000     H
    H   1.0     0.370867     0.842615     0.342392  Biso 1.000000     H
    H   1.0     0.870818     0.842639     0.342345  Biso 1.000000     H
    H   1.0     0.063917     0.798630     0.265588  Biso 1.000000     H
    H   1.0     0.563911     0.798711     0.265556  Biso 1.000000     H
    H   1.0     0.403249     0.524390     0.258166  Biso 1.000000     H
    H   1.0     0.903250     0.524334     0.258220  Biso 1.000000     H
    H   1.0     0.180802     0.745393     0.415374  Biso 1.000000     H
    H   1.0     0.680771     0.745376     0.415348  Biso 1.000000     H
    H   1.0     0.007272     0.502474     0.411607  Biso 1.000000     H
    H   1.0     0.507192     0.502512     0.411551  Biso 1.000000     H
    H   1.0     0.168695     0.847290     0.511353  Biso 1.000000     H
    H   1.0     0.668702     0.847221     0.511335  Biso 1.000000     H
    H   1.0     0.110528     0.783070     0.552614  Biso 1.000000     H
    H   1.0     0.610561     0.782975     0.552609  Biso 1.000000     H
    H   1.0     0.470926     0.829577     0.433110  Biso 1.000000     H
    H   1.0     0.970909     0.829616     0.433100  Biso 1.000000     H
    H   1.0     0.117814     0.011473     0.573851  Biso 1.000000     H
    H   1.0     0.617806     0.011382     0.573900  Biso 1.000000     H
    H   1.0     0.288196     0.342157     0.341637  Biso 1.000000     H
    H   1.0     0.788254     0.342216     0.341564  Biso 1.000000     H
    H   1.0     0.055396     0.292138     0.266108  Biso 1.000000     H
    H   1.0     0.555451     0.292133     0.266064  Biso 1.000000     H
    H   1.0     0.213771     0.020894     0.260189  Biso 1.000000     H
    H   1.0     0.713844     0.020901     0.260178  Biso 1.000000     H
    H   1.0     0.315699     0.250416     0.584045  Biso 1.000000     H
    H   1.0     0.815807     0.250636     0.584110  Biso 1.000000     H
    H   1.0     0.489199     0.493421     0.587870  Biso 1.000000     H
    H   1.0     0.989356     0.493486     0.587758  Biso 1.000000     H
    H   1.0     0.327930     0.148516     0.488141  Biso 1.000000     H
    H   1.0     0.827921     0.148574     0.488183  Biso 1.000000     H
    H   1.0     0.386169     0.212662     0.446903  Biso 1.000000     H
    H   1.0     0.886105     0.212696     0.446892  Biso 1.000000     H
    H   1.0     0.025696     0.166210     0.566458  Biso 1.000000     H
    H   1.0     0.525698     0.166129     0.566500  Biso 1.000000     H
    H   1.0     0.378798     0.984310     0.425725  Biso 1.000000     H
    H   1.0     0.878778     0.984346     0.425714  Biso 1.000000     H
    H   1.0     0.208674     0.654233     0.657731  Biso 1.000000     H
    H   1.0     0.708754     0.654487     0.657653  Biso 1.000000     H
    H   1.0     0.441336     0.703719     0.733717  Biso 1.000000     H
    H   1.0     0.941396     0.704293     0.733613  Biso 1.000000     H
    H   1.0     0.282732     0.974551     0.740481  Biso 1.000000     H
    H   1.0     0.782585     0.974847     0.740455  Biso 1.000000     H
    C   1.0     0.228124     0.218103     0.813836  Biso 1.000000     C
    C   1.0     0.728128     0.217984     0.813847  Biso 1.000000     C
    C   1.0     0.129632     0.249512     0.853124  Biso 1.000000     C
    C   1.0     0.629628     0.249333     0.853132  Biso 1.000000     C
    C   1.0     0.160498     0.453235     0.884878  Biso 1.000000     C
    C   1.0     0.660416     0.453089     0.884866  Biso 1.000000     C
    C   1.0     0.206080     0.475048     0.944496  Biso 1.000000     C
    C   1.0     0.705984     0.474990     0.944483  Biso 1.000000     C
    C   1.0     0.287686     0.476473     0.955234  Biso 1.000000     C
    C   1.0     0.787589     0.476472     0.955229  Biso 1.000000     C
    C   1.0     0.167350     0.497375     0.989918  Biso 1.000000     C
    C   1.0     0.667241     0.497351     0.989896  Biso 1.000000     C
    C   1.0     0.305288     0.272188     0.186484  Biso 1.000000     C
    C   1.0     0.805142     0.272165     0.186344  Biso 1.000000     C
    C   1.0     0.186645     0.249795     0.145175  Biso 1.000000     C
    C   1.0     0.686517     0.249680     0.145009  Biso 1.000000     C
    C   1.0     0.195767     0.049408     0.107473  Biso 1.000000     C
    C   1.0     0.695728     0.049274     0.107346  Biso 1.000000     C
    C   1.0     0.224472     0.025120     0.052360  Biso 1.000000     C
    C   1.0     0.724449     0.024880     0.052246  Biso 1.000000     C
    C   1.0     0.240340     0.109481     0.019161  Biso 1.000000     C
    C   1.0     0.740371     0.109169     0.019024  Biso 1.000000     C
    C   1.0     0.232895     0.914296     0.032749  Biso 1.000000     C
    C   1.0     0.732821     0.914020     0.032668  Biso 1.000000     C
    C   1.0     0.267807     0.778974     0.186032  Biso 1.000000     C
    C   1.0     0.767651     0.779082     0.185978  Biso 1.000000     C
    C   1.0     0.366664     0.747716     0.147123  Biso 1.000000     C
    C   1.0     0.866569     0.747774     0.147145  Biso 1.000000     C
    C   1.0     0.336069     0.543981     0.115258  Biso 1.000000     C
    C   1.0     0.835939     0.544061     0.115249  Biso 1.000000     C
    C   1.0     0.290494     0.521955     0.055652  Biso 1.000000     C
    C   1.0     0.790372     0.522022     0.055640  Biso 1.000000     C
    C   1.0     0.208888     0.520459     0.044918  Biso 1.000000     C
    C   1.0     0.708765     0.520499     0.044895  Biso 1.000000     C
    C   1.0     0.329226     0.499564     0.010235  Biso 1.000000     C
    C   1.0     0.829116     0.499626     0.010229  Biso 1.000000     C
    C   1.0     0.190960     0.725629     0.813645  Biso 1.000000     C
    C   1.0     0.690986     0.725137     0.813563  Biso 1.000000     C
    C   1.0     0.309662     0.748061     0.854835  Biso 1.000000     C
    C   1.0     0.809692     0.747541     0.854763  Biso 1.000000     C
    C   1.0     0.300534     0.948379     0.892674  Biso 1.000000     C
    C   1.0     0.800563     0.947850     0.892606  Biso 1.000000     C
    C   1.0     0.272007     0.972594     0.947858  Biso 1.000000     C
    C   1.0     0.772005     0.972149     0.947771  Biso 1.000000     C
    C   1.0     0.256187     0.888244     0.981076  Biso 1.000000     C
    C   1.0     0.756123     0.887865     0.981007  Biso 1.000000     C
    C   1.0     0.263626     0.083423     0.967490  Biso 1.000000     C
    C   1.0     0.763668     0.083011     0.967367  Biso 1.000000     C
    C   1.0     0.423371     0.796073     0.575230  Biso 1.000000     C
    C   1.0     0.923343     0.795468     0.574934  Biso 1.000000     C
    C   1.0     0.336808     0.919071     0.579414  Biso 1.000000     C
    C   1.0     0.836861     0.918555     0.579186  Biso 1.000000     C
    C   1.0     0.352746     0.681701     0.488657  Biso 1.000000     C
    C   1.0     0.852619     0.681260     0.488344  Biso 1.000000     C
    C   1.0     0.299088     0.587832     0.496067  Biso 1.000000     C
    C   1.0     0.798989     0.587423     0.495829  Biso 1.000000     C
    C   1.0     0.252525     0.592994     0.537417  Biso 1.000000     C
    C   1.0     0.752505     0.592672     0.537230  Biso 1.000000     C
    C   1.0     0.294391     0.492447     0.458636  Biso 1.000000     C
    C   1.0     0.794226     0.491993     0.458424  Biso 1.000000     C
    C   1.0     0.189667     0.360447     0.676680  Biso 1.000000     C
    C   1.0     0.689670     0.360850     0.676436  Biso 1.000000     C
    C   1.0     0.117232     0.319535     0.695580  Biso 1.000000     C
    C   1.0     0.617293     0.320128     0.695505  Biso 1.000000     C
    C   1.0     0.091532     0.209890     0.680659  Biso 1.000000     C
    C   1.0     0.591640     0.210424     0.680726  Biso 1.000000     C
    C   1.0     0.484786     0.235626     0.724143  Biso 1.000000     C
    C   1.0     0.984611     0.234975     0.724018  Biso 1.000000     C
    C   1.0     0.507096     0.345799     0.742466  Biso 1.000000     C
    C   1.0     0.000000     0.345105     0.742440  Biso 1.000000     C
    C   1.0     0.074524     0.387135     0.727979  Biso 1.000000     C
    C   1.0     0.574614     0.387840     0.727886  Biso 1.000000     C
    C   1.0     0.458221     0.417382     0.776417  Biso 1.000000     C
    C   1.0     0.958091     0.416845     0.776339  Biso 1.000000     C
    C   1.0     0.073429     0.201259     0.424879  Biso 1.000000     C
    C   1.0     0.573384     0.201064     0.424852  Biso 1.000000     C
    C   1.0     0.159833     0.077995     0.420764  Biso 1.000000     C
    C   1.0     0.659770     0.077788     0.420691  Biso 1.000000     C
    C   1.0     0.144185     0.315684     0.511357  Biso 1.000000     C
    C   1.0     0.644151     0.315377     0.511353  Biso 1.000000     C
    C   1.0     0.197842     0.409485     0.503869  Biso 1.000000     C
    C   1.0     0.697774     0.409154     0.503791  Biso 1.000000     C
    C   1.0     0.244393     0.404318     0.462507  Biso 1.000000     C
    C   1.0     0.744240     0.403901     0.462375  Biso 1.000000     C
    C   1.0     0.202529     0.504875     0.541289  Biso 1.000000     C
    C   1.0     0.702521     0.504591     0.541182  Biso 1.000000     C
    C   1.0     0.307036     0.635432     0.323116  Biso 1.000000     C
    C   1.0     0.807005     0.635424     0.323090  Biso 1.000000     C
    C   1.0     0.379360     0.676890     0.304280  Biso 1.000000     C
    C   1.0     0.879337     0.676883     0.304272  Biso 1.000000     C
    C   1.0     0.404796     0.786591     0.319379  Biso 1.000000     C
    C   1.0     0.904769     0.786590     0.319362  Biso 1.000000     C
    C   1.0     0.011679     0.762574     0.275898  Biso 1.000000     C
    C   1.0     0.511684     0.762629     0.275871  Biso 1.000000     C
    C   1.0    -0.010374     0.652443     0.257355  Biso 1.000000     C
    C   1.0     0.489639     0.652497     0.257332  Biso 1.000000     C
    C   1.0     0.422208     0.609834     0.271753  Biso 1.000000     C
    C   1.0     0.922210     0.609788     0.271781  Biso 1.000000     C
    C   1.0     0.038635     0.581474     0.223318  Biso 1.000000     C
    C   1.0     0.538643     0.581536     0.223291  Biso 1.000000     C
    C   1.0     0.132203     0.698992     0.424799  Biso 1.000000     C
    C   1.0     0.632170     0.698976     0.424770  Biso 1.000000     C
    C   1.0     0.044317     0.575779     0.423947  Biso 1.000000     C
    C   1.0     0.544259     0.575792     0.423904  Biso 1.000000     C
    C   1.0     0.109401     0.816740     0.511234  Biso 1.000000     C
    C   1.0     0.609414     0.816673     0.511234  Biso 1.000000     C
    C   1.0     0.051396     0.909582     0.503722  Biso 1.000000     C
    C   1.0     0.551408     0.909519     0.503747  Biso 1.000000     C
    C   1.0     0.483553     0.903270     0.462444  Biso 1.000000     C
    C   1.0     0.983544     0.903321     0.462426  Biso 1.000000     C
    C   1.0     0.065513     0.005239     0.541035  Biso 1.000000     C
    C   1.0     0.565518     0.005158     0.541073  Biso 1.000000     C
    C   1.0     0.343083     0.135242     0.323264  Biso 1.000000     C
    C   1.0     0.843135     0.135259     0.323260  Biso 1.000000     C
    C   1.0     0.260842     0.175256     0.304803  Biso 1.000000     C
    C   1.0     0.760906     0.175293     0.304761  Biso 1.000000     C
    C   1.0     0.242668     0.284885     0.319234  Biso 1.000000     C
    C   1.0     0.742726     0.284923     0.319182  Biso 1.000000     C
    C   1.0     0.113393     0.257822     0.276248  Biso 1.000000     C
    C   1.0     0.613449     0.257825     0.276208  Biso 1.000000     C
    C   1.0     0.126423     0.147517     0.258452  Biso 1.000000     C
    C   1.0     0.626489     0.147524     0.258411  Biso 1.000000     C
    C   1.0     0.201534     0.106500     0.273073  Biso 1.000000     C
    C   1.0     0.701600     0.106515     0.273044  Biso 1.000000     C
    C   1.0     0.060415     0.073583     0.225402  Biso 1.000000     C
    C   1.0     0.560468     0.073582     0.225389  Biso 1.000000     C
    C   1.0     0.364303     0.296856     0.574653  Biso 1.000000     C
    C   1.0     0.864405     0.297015     0.574666  Biso 1.000000     C
    C   1.0     0.452182     0.420090     0.575527  Biso 1.000000     C
    C   1.0     0.952306     0.420177     0.575453  Biso 1.000000     C
    C   1.0     0.387235     0.179038     0.488287  Biso 1.000000     C
    C   1.0     0.887216     0.179092     0.488287  Biso 1.000000     C
    C   1.0     0.445226     0.086196     0.495848  Biso 1.000000     C
    C   1.0     0.945217     0.086255     0.495826  Biso 1.000000     C
    C   1.0     0.013068     0.092513     0.537124  Biso 1.000000     C
    C   1.0     0.513075     0.092437     0.537161  Biso 1.000000     C
    C   1.0     0.431107     0.990541     0.458535  Biso 1.000000     C
    C   1.0     0.931093     0.990592     0.458517  Biso 1.000000     C
    C   1.0     0.153575     0.860613     0.676688  Biso 1.000000     C
    C   1.0     0.653508     0.860764     0.676661  Biso 1.000000     C
    C   1.0     0.235868     0.820699     0.695190  Biso 1.000000     C
    C   1.0     0.735835     0.820961     0.695145  Biso 1.000000     C
    C   1.0     0.254156     0.711298     0.680394  Biso 1.000000     C
    C   1.0     0.754194     0.711606     0.680325  Biso 1.000000     C
    C   1.0     0.383355     0.738109     0.723623  Biso 1.000000     C
    C   1.0     0.883384     0.738592     0.723549  Biso 1.000000     C
    C   1.0     0.370216     0.848154     0.741825  Biso 1.000000     C
    C   1.0     0.870173     0.848607     0.741771  Biso 1.000000     C
    C   1.0     0.295083     0.889175     0.727257  Biso 1.000000     C
    C   1.0     0.795004     0.889505     0.727221  Biso 1.000000     C
    C   1.0     0.436135     0.921778     0.775268  Biso 1.000000     C
    C   1.0     0.936059     0.922315     0.775211  Biso 1.000000     C
    N   1.0     0.236945     0.324300     0.833586  Biso 1.000000     N
    N   1.0     0.736915     0.324188     0.833591  Biso 1.000000     N
    N   1.0     0.162701     0.168224     0.825125  Biso 1.000000     N
    N   1.0     0.662716     0.168060     0.825132  Biso 1.000000     N
    N   1.0     0.173471     0.342943     0.858543  Biso 1.000000     N
    N   1.0     0.673435     0.342795     0.858547  Biso 1.000000     N
    N   1.0     0.301330     0.167677     0.164111  Biso 1.000000     N
    N   1.0     0.801238     0.167659     0.163968  Biso 1.000000     N
    N   1.0     0.235823     0.326622     0.175657  Biso 1.000000     N
    N   1.0     0.735655     0.326541     0.175506  Biso 1.000000     N
    N   1.0     0.225038     0.154728     0.137927  Biso 1.000000     N
    N   1.0     0.724956     0.154651     0.137764  Biso 1.000000     N
    N   1.0     0.259160     0.672774     0.166250  Biso 1.000000     N
    N   1.0     0.758993     0.672888     0.166186  Biso 1.000000     N
    N   1.0     0.333354     0.828946     0.174990  Biso 1.000000     N
    N   1.0     0.833243     0.829019     0.174988  Biso 1.000000     N
    N   1.0     0.322862     0.654223     0.141540  Biso 1.000000     N
    N   1.0     0.822737     0.654307     0.141528  Biso 1.000000     N
    N   1.0     0.194925     0.830078     0.836106  Biso 1.000000     N
    N   1.0     0.694951     0.829565     0.836050  Biso 1.000000     N
    N   1.0     0.260456     0.671248     0.824345  Biso 1.000000     N
    N   1.0     0.760483     0.670763     0.824250  Biso 1.000000     N
    N   1.0     0.271253     0.843055     0.862218  Biso 1.000000     N
    N   1.0     0.771277     0.842519     0.862167  Biso 1.000000     N
    N   1.0     0.409274     0.889119     0.605370  Biso 1.000000     N
    N   1.0     0.909306     0.888481     0.605123  Biso 1.000000     N
    N   1.0     0.305647     0.850473     0.535183  Biso 1.000000     N
    N   1.0     0.805659     0.850067     0.534921  Biso 1.000000     N
    N   1.0     0.361858     0.771915     0.533264  Biso 1.000000     N
    N   1.0     0.861821     0.771454     0.532958  Biso 1.000000     N
    N   1.0     0.026697     0.167627     0.694453  Biso 1.000000     N
    N   1.0     0.526853     0.168197     0.694602  Biso 1.000000     N
    N   1.0     0.087403     0.108075     0.394805  Biso 1.000000     N
    N   1.0     0.587359     0.107941     0.394732  Biso 1.000000     N
    N   1.0     0.191095     0.146666     0.464932  Biso 1.000000     N
    N   1.0     0.691022     0.146362     0.464903  Biso 1.000000     N
    N   1.0     0.134987     0.225382     0.466806  Biso 1.000000     N
    N   1.0     0.634920     0.225077     0.466807  Biso 1.000000     N
    N   1.0     0.469465     0.829381     0.305599  Biso 1.000000     N
    N   1.0     0.969460     0.829359     0.305603  Biso 1.000000     N
    N   1.0     0.101756     0.604865     0.396108  Biso 1.000000     N
    N   1.0     0.601696     0.604879     0.396062  Biso 1.000000     N
    N   1.0     0.037670     0.645982     0.467975  Biso 1.000000     N
    N   1.0     0.537640     0.645964     0.467950  Biso 1.000000     N
    N   1.0     0.094329     0.724614     0.467745  Biso 1.000000     N
    N   1.0     0.594316     0.724575     0.467730  Biso 1.000000     N
    N   1.0     0.170546     0.326187     0.305436  Biso 1.000000     N
    N   1.0     0.670603     0.326216     0.305370  Biso 1.000000     N
    N   1.0     0.394704     0.391019     0.603331  Biso 1.000000     N
    N   1.0     0.894860     0.391191     0.603306  Biso 1.000000     N
    N   1.0     0.458903     0.349838     0.531534  Biso 1.000000     N
    N   1.0     0.958954     0.349873     0.531465  Biso 1.000000     N
    N   1.0     0.402249     0.271196     0.531751  Biso 1.000000     N
    N   1.0     0.902288     0.271278     0.531737  Biso 1.000000     N
    N   1.0     0.326265     0.669950     0.694167  Biso 1.000000     N
    N   1.0     0.826343     0.670373     0.694078  Biso 1.000000     N
    O   1.0     0.213353     0.459297     0.695933  Biso 1.000000     O
    O   1.0     0.713284     0.459890     0.695374  Biso 1.000000     O
    O   1.0     0.220091     0.296601     0.643497  Biso 1.000000     O
    O   1.0     0.720120     0.296612     0.643441  Biso 1.000000     O
    O   1.0     0.490227     0.495447     0.809895  Biso 1.000000     O
    O   1.0     0.990149     0.494941     0.809780  Biso 1.000000     O
    O   1.0     0.385391     0.388921     0.765997  Biso 1.000000     O
    O   1.0     0.885227     0.388565     0.765872  Biso 1.000000     O
    O   1.0     0.283432     0.536680     0.303605  Biso 1.000000     O
    O   1.0     0.783407     0.536676     0.303576  Biso 1.000000     O
    O   1.0     0.276567     0.698802     0.356470  Biso 1.000000     O
    O   1.0     0.776527     0.698797     0.356440  Biso 1.000000     O
    O   1.0     0.006642     0.503736     0.189600  Biso 1.000000     O
    O   1.0     0.506656     0.503770     0.189586  Biso 1.000000     O
    O   1.0     0.111462     0.609921     0.233919  Biso 1.000000     O
    O   1.0     0.611470     0.609976     0.233890  Biso 1.000000     O
    O   1.0     0.356957     0.036975     0.303580  Biso 1.000000     O
    O   1.0     0.856999     0.036965     0.303609  Biso 1.000000     O
    O   1.0     0.390659     0.199376     0.356387  Biso 1.000000     O
    O   1.0     0.890702     0.199398     0.356387  Biso 1.000000     O
    O   1.0     0.076717    -0.013892     0.199062  Biso 1.000000     O
    O   1.0     0.576744    -0.013918     0.199058  Biso 1.000000     O
    O   1.0     0.492037     0.110380     0.229010  Biso 1.000000     O
    O   1.0     0.991987     0.110358     0.229016  Biso 1.000000     O
    O   1.0     0.139588     0.958795     0.696422  Biso 1.000000     O
    O   1.0     0.639506     0.958955     0.696384  Biso 1.000000     O
    O   1.0     0.106131     0.796398     0.643504  Biso 1.000000     O
    O   1.0     0.606082     0.796480     0.643512  Biso 1.000000     O
    O   1.0     0.419797     0.000000     0.802824  Biso 1.000000     O
    O   1.0     0.919720     0.000000     0.802745  Biso 1.000000     O
    O   1.0     0.004521     0.886971     0.770621  Biso 1.000000     O
    O   1.0     0.504600     0.886415     0.770659  Biso 1.000000     O
   Ag   1.0     0.300725     0.507341     0.792563  Biso 1.000000    Ag
   Ag   1.0     0.800741     0.507104     0.792362  Biso 1.000000    Ag
   Ag   1.0     0.392420    -0.007215     0.203892  Biso 1.000000    Ag
   Ag   1.0     0.892378    -0.007214     0.203905  Biso 1.000000    Ag
   Ag   1.0     0.195649     0.490833     0.207146  Biso 1.000000    Ag
   Ag   1.0     0.695512     0.490704     0.207077  Biso 1.000000    Ag
   Ag   1.0     0.104042     0.000000     0.796377  Biso 1.000000    Ag
   Ag   1.0     0.603985     0.000000     0.796347  Biso 1.000000    Ag
   Ag   1.0     0.000707     0.985633     0.664780  Biso 1.000000    Ag
   Ag   1.0     0.500709     0.986294     0.664970  Biso 1.000000    Ag
   Ag   1.0     0.495857     0.010652     0.335532  Biso 1.000000    Ag
   Ag   1.0     0.995926     0.010623     0.335626  Biso 1.000000    Ag
   Ag   1.0     0.159766     0.507371     0.335232  Biso 1.000000    Ag
   Ag   1.0     0.659737     0.507357     0.335213  Biso 1.000000    Ag
   Ag   1.0     0.336821     0.488645     0.664225  Biso 1.000000    Ag
   Ag   1.0     0.836982     0.489162     0.664063  Biso 1.000000    Ag
