#======================================================================

# CRYSTAL DATA

#----------------------------------------------------------------------

data_VESTA_phase_1


_pd_phase_name                         MOF
_cell_length_a                         20.93500
_cell_length_b                         20.94600
_cell_length_c                         16.31800
_cell_angle_alpha                      80.94900
_cell_angle_beta                       81.04000
_cell_angle_gamma                      49.40700
_symmetry_space_group_name_H-M         "P 1"
_symmetry_Int_Tables_number            1

loop_
_symmetry_equiv_pos_as_xyz
   "x, y, z"

loop_
   _atom_site_label
   _atom_site_occupancy
   _atom_site_fract_x
   _atom_site_fract_y
   _atom_site_fract_z
   _atom_site_adp_type
   _atom_site_B_iso_or_equiv
   _atom_site_type_symbol
    H   1.0     0.347718     0.369285     0.996320  Biso 1.000000     H
    H   1.0     0.347719     0.869276     0.996320  Biso 1.000000     H
    H   1.0     0.847715     0.369281     0.996321  Biso 1.000000     H
    H   1.0     0.847717     0.869272     0.996320  Biso 1.000000     H
    H   1.0     0.197267     0.414177     0.280219  Biso 1.000000     H
    H   1.0     0.197268     0.914168     0.280219  Biso 1.000000     H
    H   1.0     0.697265     0.414174     0.280219  Biso 1.000000     H
    H   1.0     0.697266     0.914164     0.280219  Biso 1.000000     H
    H   1.0     0.041184     0.004623     0.026554  Biso 1.000000     H
    H   1.0     0.041185     0.504612     0.026554  Biso 1.000000     H
    H   1.0     0.541180     0.004623     0.026554  Biso 1.000000     H
    H   1.0     0.541181     0.504612     0.026555  Biso 1.000000     H
    H   1.0     0.130253     0.152479     0.503758  Biso 1.000000     H
    H   1.0     0.130256     0.652469     0.503758  Biso 1.000000     H
    H   1.0     0.630246     0.152480     0.503759  Biso 1.000000     H
    H   1.0     0.630248     0.652470     0.503759  Biso 1.000000     H
    H   1.0     0.087270     0.302918     0.219716  Biso 1.000000     H
    H   1.0     0.087273     0.802908     0.219716  Biso 1.000000     H
    H   1.0     0.587264     0.302920     0.219717  Biso 1.000000     H
    H   1.0     0.587267     0.802910     0.219717  Biso 1.000000     H
    H   1.0     0.495384     0.458789     0.473400  Biso 1.000000     H
    H   1.0     0.495387     0.958779     0.473400  Biso 1.000000     H
    H   1.0     0.995386     0.458791     0.473398  Biso 1.000000     H
    H   1.0     0.995388     0.958781     0.473398  Biso 1.000000     H
    H   1.0     0.152244     0.130727     0.003722  Biso 1.000000     H
    H   1.0     0.152246     0.630718     0.003722  Biso 1.000000     H
    H   1.0     0.652240     0.130724     0.003722  Biso 1.000000     H
    H   1.0     0.652243     0.630714     0.003722  Biso 1.000000     H
    H   1.0     0.302696     0.085827     0.719823  Biso 1.000000     H
    H   1.0     0.302698     0.585818     0.719822  Biso 1.000000     H
    H   1.0     0.802694     0.085823     0.719823  Biso 1.000000     H
    H   1.0     0.802695     0.585813     0.719823  Biso 1.000000     H
    H   1.0     0.458781     0.495383     0.973487  Biso 1.000000     H
    H   1.0     0.458781     0.995372     0.973487  Biso 1.000000     H
    H   1.0     0.958777     0.495382     0.973487  Biso 1.000000     H
    H   1.0     0.958777     0.995372     0.973487  Biso 1.000000     H
    H   1.0     0.369712     0.347527     0.496285  Biso 1.000000     H
    H   1.0     0.369716     0.847517     0.496285  Biso 1.000000     H
    H   1.0     0.869706     0.347528     0.496285  Biso 1.000000     H
    H   1.0     0.869709     0.847518     0.496285  Biso 1.000000     H
    H   1.0     0.412699     0.197086     0.780326  Biso 1.000000     H
    H   1.0     0.412702     0.697076     0.780326  Biso 1.000000     H
    H   1.0     0.912693     0.197087     0.780327  Biso 1.000000     H
    H   1.0     0.912696     0.697077     0.780327  Biso 1.000000     H
    H   1.0     0.004576     0.041215     0.526644  Biso 1.000000     H
    H   1.0     0.004580     0.541205     0.526644  Biso 1.000000     H
    H   1.0     0.504579     0.041217     0.526643  Biso 1.000000     H
    H   1.0     0.504582     0.541207     0.526643  Biso 1.000000     H
    C   1.0     0.287046     0.407287     0.851537  Biso 1.000000     C
    C   1.0     0.287048     0.907277     0.851537  Biso 1.000000     C
    C   1.0     0.787042     0.407286     0.851537  Biso 1.000000     C
    C   1.0     0.787043     0.907276     0.851536  Biso 1.000000     C
    C   1.0     0.236995     0.425358     0.933098  Biso 1.000000     C
    C   1.0     0.236997     0.925348     0.933098  Biso 1.000000     C
    C   1.0     0.736992     0.425355     0.933098  Biso 1.000000     C
    C   1.0     0.736994     0.925346     0.933098  Biso 1.000000     C
    C   1.0     0.281047     0.399482     0.000000  Biso 1.000000     C
    C   1.0     0.281049     0.899472     0.000000  Biso 1.000000     C
    C   1.0     0.781044     0.399478     0.000000  Biso 1.000000     C
    C   1.0     0.781046     0.899468     0.000000  Biso 1.000000     C
    C   1.0     0.238117     0.413001     0.081805  Biso 1.000000     C
    C   1.0     0.238119     0.912992     0.081805  Biso 1.000000     C
    C   1.0     0.738114     0.412997     0.081805  Biso 1.000000     C
    C   1.0     0.738116     0.912987     0.081805  Biso 1.000000     C
    C   1.0     0.196710     0.419250     0.212999  Biso 1.000000     C
    C   1.0     0.196712     0.919240     0.212999  Biso 1.000000     C
    C   1.0     0.696707     0.419246     0.213000  Biso 1.000000     C
    C   1.0     0.696709     0.919236     0.212999  Biso 1.000000     C
    C   1.0     0.152045     0.449061     0.090205  Biso 1.000000     C
    C   1.0     0.152047     0.949051     0.090205  Biso 1.000000     C
    C   1.0     0.652042     0.449058     0.090206  Biso 1.000000     C
    C   1.0     0.652044     0.949048     0.090206  Biso 1.000000     C
    C   1.0     0.107597     0.475343     0.019897  Biso 1.000000     C
    C   1.0     0.107599     0.975333     0.019896  Biso 1.000000     C
    C   1.0     0.607593     0.475342     0.019897  Biso 1.000000     C
    C   1.0     0.607595     0.975332     0.019897  Biso 1.000000     C
    C   1.0     0.149741     0.464515     0.941264  Biso 1.000000     C
    C   1.0     0.149743     0.964505     0.941264  Biso 1.000000     C
    C   1.0     0.649738     0.464514     0.941265  Biso 1.000000     C
    C   1.0     0.649740     0.964503     0.941264  Biso 1.000000     C
    C   1.0     0.097182     0.494380     0.868694  Biso 1.000000     C
    C   1.0     0.097184     0.994369     0.868694  Biso 1.000000     C
    C   1.0     0.597180     0.494376     0.868694  Biso 1.000000     C
    C   1.0     0.597182     0.994365     0.868695  Biso 1.000000     C
    C   1.0     0.091985     0.212839     0.648550  Biso 1.000000     C
    C   1.0     0.091988     0.712830     0.648550  Biso 1.000000     C
    C   1.0     0.591981     0.212838     0.648550  Biso 1.000000     C
    C   1.0     0.591984     0.712829     0.648551  Biso 1.000000     C
    C   1.0     0.074038     0.263025     0.566955  Biso 1.000000     C
    C   1.0     0.074041     0.763015     0.566955  Biso 1.000000     C
    C   1.0     0.574035     0.263025     0.566956  Biso 1.000000     C
    C   1.0     0.574038     0.763015     0.566956  Biso 1.000000     C
    C   1.0     0.100165     0.219103     0.496071  Biso 1.000000     C
    C   1.0     0.100168     0.719093     0.496071  Biso 1.000000     C
    C   1.0     0.600161     0.219103     0.496071  Biso 1.000000     C
    C   1.0     0.600163     0.719093     0.496071  Biso 1.000000     C
    C   1.0     0.087097     0.262070     0.418189  Biso 1.000000     C
    C   1.0     0.087099     0.762061     0.418189  Biso 1.000000     C
    C   1.0     0.587093     0.262070     0.418190  Biso 1.000000     C
    C   1.0     0.587096     0.762061     0.418189  Biso 1.000000     C
    C   1.0     0.081728     0.303483     0.286960  Biso 1.000000     C
    C   1.0     0.081731     0.803473     0.286960  Biso 1.000000     C
    C   1.0     0.581723     0.303484     0.286961  Biso 1.000000     C
    C   1.0     0.581726     0.803474     0.286961  Biso 1.000000     C
    C   1.0     0.051166     0.348071     0.409771  Biso 1.000000     C
    C   1.0     0.051168     0.848061     0.409771  Biso 1.000000     C
    C   1.0     0.551163     0.348071     0.409773  Biso 1.000000     C
    C   1.0     0.551166     0.848061     0.409773  Biso 1.000000     C
    C   1.0     0.024548     0.392428     0.480078  Biso 1.000000     C
    C   1.0     0.024550     0.892418     0.480078  Biso 1.000000     C
    C   1.0     0.524547     0.392427     0.480080  Biso 1.000000     C
    C   1.0     0.524550     0.892417     0.480080  Biso 1.000000     C
    C   1.0     0.034985     0.350230     0.558743  Biso 1.000000     C
    C   1.0     0.034988     0.850220     0.558743  Biso 1.000000     C
    C   1.0     0.534986     0.350228     0.558744  Biso 1.000000     C
    C   1.0     0.534988     0.850219     0.558744  Biso 1.000000     C
    C   1.0     0.004982     0.402645     0.631288  Biso 1.000000     C
    C   1.0     0.004985     0.902635     0.631288  Biso 1.000000     C
    C   1.0     0.504985     0.402645     0.631288  Biso 1.000000     C
    C   1.0     0.504987     0.902635     0.631287  Biso 1.000000     C
    C   1.0     0.212918     0.092723     0.148504  Biso 1.000000     C
    C   1.0     0.212920     0.592714     0.148504  Biso 1.000000     C
    C   1.0     0.712913     0.092723     0.148503  Biso 1.000000     C
    C   1.0     0.712916     0.592713     0.148503  Biso 1.000000     C
    C   1.0     0.262967     0.074652     0.066943  Biso 1.000000     C
    C   1.0     0.262969     0.574643     0.066942  Biso 1.000000     C
    C   1.0     0.762963     0.074651     0.066943  Biso 1.000000     C
    C   1.0     0.762966     0.574641     0.066943  Biso 1.000000     C
    C   1.0     0.218914     0.100530    -0.003931  Biso 1.000000     C
    C   1.0     0.218916     0.600520    -0.003932  Biso 1.000000     C
    C   1.0     0.718911     0.100526    -0.003931  Biso 1.000000     C
    C   1.0     0.718914     0.600516    -0.003931  Biso 1.000000     C
    C   1.0     0.261845     0.087008     0.918237  Biso 1.000000     C
    C   1.0     0.261847     0.586998     0.918236  Biso 1.000000     C
    C   1.0     0.761842     0.087005     0.918237  Biso 1.000000     C
    C   1.0     0.761844     0.586995     0.918237  Biso 1.000000     C
    C   1.0     0.303252     0.080756     0.787042  Biso 1.000000     C
    C   1.0     0.303254     0.580747     0.787042  Biso 1.000000     C
    C   1.0     0.803250     0.080752     0.787042  Biso 1.000000     C
    C   1.0     0.803252     0.580742     0.787042  Biso 1.000000     C
    C   1.0     0.347917     0.050947     0.909835  Biso 1.000000     C
    C   1.0     0.347919     0.550937     0.909835  Biso 1.000000     C
    C   1.0     0.847914     0.050944     0.909836  Biso 1.000000     C
    C   1.0     0.847916     0.550934     0.909836  Biso 1.000000     C
    C   1.0     0.392366     0.024664     0.980144  Biso 1.000000     C
    C   1.0     0.392368     0.524654     0.980143  Biso 1.000000     C
    C   1.0     0.892363     0.024663     0.980144  Biso 1.000000     C
    C   1.0     0.892365     0.524652     0.980144  Biso 1.000000     C
    C   1.0     0.350221     0.035494     0.058776  Biso 1.000000     C
    C   1.0     0.350223     0.535484     0.058776  Biso 1.000000     C
    C   1.0     0.850218     0.035492     0.058776  Biso 1.000000     C
    C   1.0     0.850221     0.535481     0.058776  Biso 1.000000     C
    C   1.0     0.402781     0.005629     0.131344  Biso 1.000000     C
    C   1.0     0.402782     0.505619     0.131344  Biso 1.000000     C
    C   1.0     0.902779     0.005626     0.131344  Biso 1.000000     C
    C   1.0     0.902781     0.505615     0.131344  Biso 1.000000     C
    C   1.0     0.407973     0.287171     0.351492  Biso 1.000000     C
    C   1.0     0.407976     0.787161     0.351493  Biso 1.000000     C
    C   1.0     0.907970     0.287170     0.351493  Biso 1.000000     C
    C   1.0     0.907972     0.787160     0.351493  Biso 1.000000     C
    C   1.0     0.425924     0.236983     0.433086  Biso 1.000000     C
    C   1.0     0.425927     0.736973     0.433086  Biso 1.000000     C
    C   1.0     0.925922     0.236982     0.433087  Biso 1.000000     C
    C   1.0     0.925924     0.736972     0.433087  Biso 1.000000     C
    C   1.0     0.399800     0.280904     0.503971  Biso 1.000000     C
    C   1.0     0.399803     0.780894     0.503971  Biso 1.000000     C
    C   1.0     0.899796     0.280904     0.503972  Biso 1.000000     C
    C   1.0     0.899799     0.780894     0.503972  Biso 1.000000     C
    C   1.0     0.412869     0.237936     0.581853  Biso 1.000000     C
    C   1.0     0.412873     0.737926     0.581853  Biso 1.000000     C
    C   1.0     0.912866     0.237936     0.581854  Biso 1.000000     C
    C   1.0     0.912869     0.737925     0.581854  Biso 1.000000     C
    C   1.0     0.418239     0.196523     0.713081  Biso 1.000000     C
    C   1.0     0.418242     0.696512     0.713081  Biso 1.000000     C
    C   1.0     0.918235     0.196523     0.713082  Biso 1.000000     C
    C   1.0     0.918238     0.696513     0.713082  Biso 1.000000     C
    C   1.0     0.448799     0.151936     0.590270  Biso 1.000000     C
    C   1.0     0.448802     0.651926     0.590269  Biso 1.000000     C
    C   1.0     0.948796     0.151935     0.590271  Biso 1.000000     C
    C   1.0     0.948799     0.651925     0.590271  Biso 1.000000     C
    C   1.0     0.475415     0.107580     0.519962  Biso 1.000000     C
    C   1.0     0.475418     0.607570     0.519962  Biso 1.000000     C
    C   1.0     0.975415     0.107579     0.519963  Biso 1.000000     C
    C   1.0     0.975418     0.607568     0.519963  Biso 1.000000     C
    C   1.0     0.464977     0.149778     0.441297  Biso 1.000000     C
    C   1.0     0.464980     0.649768     0.441297  Biso 1.000000     C
    C   1.0     0.964977     0.149776     0.441298  Biso 1.000000     C
    C   1.0     0.964980     0.649766     0.441298  Biso 1.000000     C
    C   1.0     0.494978     0.097364     0.368751  Biso 1.000000     C
    C   1.0     0.494980     0.597354     0.368751  Biso 1.000000     C
    C   1.0     0.994980     0.097363     0.368751  Biso 1.000000     C
    C   1.0     0.994983     0.597353     0.368751  Biso 1.000000     C
    N   1.0     0.264800     0.395116     0.161259  Biso 1.000000     N
    N   1.0     0.264802     0.895106     0.161259  Biso 1.000000     N
    N   1.0     0.764798     0.395111     0.161259  Biso 1.000000     N
    N   1.0     0.764800     0.895101     0.161259  Biso 1.000000     N
    N   1.0     0.127561     0.451669     0.174546  Biso 1.000000     N
    N   1.0     0.127562     0.951660     0.174546  Biso 1.000000     N
    N   1.0     0.627558     0.451667     0.174547  Biso 1.000000     N
    N   1.0     0.627560     0.951657     0.174546  Biso 1.000000     N
    N   1.0     0.105457     0.235437     0.338720  Biso 1.000000     N
    N   1.0     0.105460     0.735427     0.338720  Biso 1.000000     N
    N   1.0     0.605452     0.235438     0.338720  Biso 1.000000     N
    N   1.0     0.605455     0.735428     0.338720  Biso 1.000000     N
    N   1.0     0.049136     0.372557     0.325420  Biso 1.000000     N
    N   1.0     0.049139     0.872547     0.325420  Biso 1.000000     N
    N   1.0     0.549133     0.372557     0.325422  Biso 1.000000     N
    N   1.0     0.549136     0.872547     0.325422  Biso 1.000000     N
    N   1.0     0.235161     0.104893     0.838783  Biso 1.000000     N
    N   1.0     0.235164     0.604884     0.838783  Biso 1.000000     N
    N   1.0     0.735159     0.104889     0.838783  Biso 1.000000     N
    N   1.0     0.735161     0.604879     0.838783  Biso 1.000000     N
    N   1.0     0.372402     0.048335     0.825495  Biso 1.000000     N
    N   1.0     0.372404     0.548326     0.825494  Biso 1.000000     N
    N   1.0     0.872400     0.048332     0.825495  Biso 1.000000     N
    N   1.0     0.872402     0.548323     0.825495  Biso 1.000000     N
    N   1.0     0.394512     0.264568     0.661322  Biso 1.000000     N
    N   1.0     0.394515     0.764558     0.661322  Biso 1.000000     N
    N   1.0     0.894508     0.264569     0.661323  Biso 1.000000     N
    N   1.0     0.894511     0.764559     0.661323  Biso 1.000000     N
    N   1.0     0.450828     0.127450     0.674621  Biso 1.000000     N
    N   1.0     0.450831     0.627440     0.674620  Biso 1.000000     N
    N   1.0     0.950824     0.127450     0.674622  Biso 1.000000     N
    N   1.0     0.950828     0.627440     0.674622  Biso 1.000000     N
    O   1.0     0.366071     0.345391     0.849910  Biso 1.000000     O
    O   1.0     0.366073     0.845383     0.849909  Biso 1.000000     O
    O   1.0     0.866068     0.345392     0.849909  Biso 1.000000     O
    O   1.0     0.866070     0.845383     0.849908  Biso 1.000000     O
    O   1.0     0.251955     0.453266     0.784349  Biso 1.000000     O
    O   1.0     0.251956     0.953256     0.784348  Biso 1.000000     O
    O   1.0     0.751949     0.453266     0.784348  Biso 1.000000     O
    O   1.0     0.751951     0.953255     0.784348  Biso 1.000000     O
    O   1.0     0.065009     0.066501     0.829610  Biso 1.000000     O
    O   1.0     0.065012     0.566491     0.829610  Biso 1.000000     O
    O   1.0     0.565004     0.066499     0.829612  Biso 1.000000     O
    O   1.0     0.565006     0.566488     0.829612  Biso 1.000000     O
    O   1.0     0.080326     0.449309     0.853620  Biso 1.000000     O
    O   1.0     0.080328     0.949298     0.853621  Biso 1.000000     O
    O   1.0     0.580330     0.449302     0.853618  Biso 1.000000     O
    O   1.0     0.580332     0.949290     0.853618  Biso 1.000000     O
    O   1.0     0.153488     0.133727     0.650245  Biso 1.000000     O
    O   1.0     0.153491     0.633717     0.650246  Biso 1.000000     O
    O   1.0     0.653478     0.133724     0.650245  Biso 1.000000     O
    O   1.0     0.653480     0.633715     0.650245  Biso 1.000000     O
    O   1.0     0.046388     0.247885     0.715734  Biso 1.000000     O
    O   1.0     0.046390     0.747875     0.715734  Biso 1.000000     O
    O   1.0     0.546389     0.247886     0.715736  Biso 1.000000     O
    O   1.0     0.546391     0.747876     0.715736  Biso 1.000000     O
    O   1.0     0.432996     0.434490     0.670315  Biso 1.000000     O
    O   1.0     0.432998     0.934480     0.670315  Biso 1.000000     O
    O   1.0     0.932997     0.434487     0.670315  Biso 1.000000     O
    O   1.0     0.932999     0.934478     0.670314  Biso 1.000000     O
    O   1.0     0.049915     0.419703     0.646373  Biso 1.000000     O
    O   1.0     0.049918     0.919692     0.646374  Biso 1.000000     O
    O   1.0     0.549920     0.419701     0.646371  Biso 1.000000     O
    O   1.0     0.549922     0.919690     0.646371  Biso 1.000000     O
    O   1.0     0.133892     0.154619     0.150133  Biso 1.000000     O
    O   1.0     0.133894     0.654610     0.150132  Biso 1.000000     O
    O   1.0     0.633888     0.154619     0.150131  Biso 1.000000     O
    O   1.0     0.633891     0.654610     0.150131  Biso 1.000000     O
    O   1.0     0.248011     0.046743     0.215691  Biso 1.000000     O
    O   1.0     0.248012     0.546733     0.215691  Biso 1.000000     O
    O   1.0     0.748006     0.046743     0.215691  Biso 1.000000     O
    O   1.0     0.748007     0.546732     0.215691  Biso 1.000000     O
    O   1.0     0.434953     0.433508     0.170427  Biso 1.000000     O
    O   1.0     0.434955     0.933497     0.170427  Biso 1.000000     O
    O   1.0     0.934947     0.433506     0.170429  Biso 1.000000     O
    O   1.0     0.934949     0.933495     0.170428  Biso 1.000000     O
    O   1.0     0.419636     0.050701     0.146417  Biso 1.000000     O
    O   1.0     0.419639     0.550689     0.146417  Biso 1.000000     O
    O   1.0     0.919640     0.050693     0.146414  Biso 1.000000     O
    O   1.0     0.919642     0.550682     0.146415  Biso 1.000000     O
    O   1.0     0.346467     0.366283     0.349799  Biso 1.000000     O
    O   1.0     0.346470     0.866273     0.349800  Biso 1.000000     O
    O   1.0     0.846457     0.366280     0.349798  Biso 1.000000     O
    O   1.0     0.846459     0.866270     0.349798  Biso 1.000000     O
    O   1.0     0.453571     0.252131     0.284306  Biso 1.000000     O
    O   1.0     0.453573     0.752121     0.284306  Biso 1.000000     O
    O   1.0     0.953572     0.252131     0.284308  Biso 1.000000     O
    O   1.0     0.953575     0.752122     0.284308  Biso 1.000000     O
    O   1.0     0.066964     0.065524     0.329721  Biso 1.000000     O
    O   1.0     0.066966     0.565514     0.329720  Biso 1.000000     O
    O   1.0     0.566965     0.065522     0.329720  Biso 1.000000     O
    O   1.0     0.566967     0.565512     0.329720  Biso 1.000000     O
    O   1.0     0.450043     0.080309     0.353665  Biso 1.000000     O
    O   1.0     0.450046     0.580298     0.353665  Biso 1.000000     O
    O   1.0     0.950047     0.080306     0.353662  Biso 1.000000     O
    O   1.0     0.950051     0.580295     0.353663  Biso 1.000000     O
   Cd   1.0     0.356859     0.396369     0.210261  Biso 1.000000    Cd
   Cd   1.0     0.356861     0.896358     0.210261  Biso 1.000000    Cd
   Cd   1.0     0.856854     0.396368     0.210261  Biso 1.000000    Cd
   Cd   1.0     0.856856     0.896357     0.210261  Biso 1.000000    Cd
   Cd   1.0     0.103995     0.143666     0.289617  Biso 1.000000    Cd
   Cd   1.0     0.103997     0.643657     0.289617  Biso 1.000000    Cd
   Cd   1.0     0.603997     0.143664     0.289617  Biso 1.000000    Cd
   Cd   1.0     0.603999     0.643654     0.289617  Biso 1.000000    Cd
   Cd   1.0     0.143101     0.103642     0.789783  Biso 1.000000    Cd
   Cd   1.0     0.143104     0.603631     0.789783  Biso 1.000000    Cd
   Cd   1.0     0.643096     0.103640     0.789783  Biso 1.000000    Cd
   Cd   1.0     0.643098     0.603630     0.789783  Biso 1.000000    Cd
   Cd   1.0     0.395964     0.356347     0.710424  Biso 1.000000    Cd
   Cd   1.0     0.395967     0.856337     0.710424  Biso 1.000000    Cd
   Cd   1.0     0.895966     0.356343     0.710425  Biso 1.000000    Cd
   Cd   1.0     0.895969     0.856334     0.710425  Biso 1.000000    Cd
   Cd   1.0     0.008129     0.492283     0.250036  Biso 1.000000    Cd
   Cd   1.0     0.008130     0.992273     0.250035  Biso 1.000000    Cd
   Cd   1.0     0.508127     0.492283     0.250041  Biso 1.000000    Cd
   Cd   1.0     0.508128     0.992274     0.250039  Biso 1.000000    Cd
   Cd   1.0     0.491833     0.007723     0.750001  Biso 1.000000    Cd
   Cd   1.0     0.491835     0.507713     0.750000  Biso 1.000000    Cd
   Cd   1.0     0.991831     0.007724     0.750005  Biso 1.000000    Cd
   Cd   1.0     0.991833     0.507714     0.750004  Biso 1.000000    Cd
