#======================================================================

# CRYSTAL DATA

#----------------------------------------------------------------------

data_VESTA_phase_1


_pd_phase_name                         MOF
_cell_length_a                         19.46000
_cell_length_b                         13.25700
_cell_length_c                         20.93500
_cell_angle_alpha                      86.32400
_cell_angle_beta                       80.17000
_cell_angle_gamma                      68.89900
_symmetry_space_group_name_H-M         "P 1"
_symmetry_Int_Tables_number            1

loop_
_symmetry_equiv_pos_as_xyz
   "x, y, z"

loop_
   _atom_site_label
   _atom_site_occupancy
   _atom_site_fract_x
   _atom_site_fract_y
   _atom_site_fract_z
   _atom_site_adp_type
   _atom_site_B_iso_or_equiv
   _atom_site_type_symbol
    H   1.0     0.194913     0.645398     0.046730  Biso 1.000000     H
    H   1.0     0.694921     0.645396     0.046730  Biso 1.000000     H
    H   1.0     0.185069     0.495997     0.123125  Biso 1.000000     H
    H   1.0     0.685078     0.495995     0.123125  Biso 1.000000     H
    H   1.0     0.422320     0.403055     0.125407  Biso 1.000000     H
    H   1.0     0.922328     0.403054     0.125407  Biso 1.000000     H
    H   1.0     0.422433     0.551157     0.048923  Biso 1.000000     H
    H   1.0     0.922441     0.551155     0.048924  Biso 1.000000     H
    H   1.0     0.381287     0.331091     0.228002  Biso 1.000000     H
    H   1.0     0.881295     0.331089     0.228002  Biso 1.000000     H
    H   1.0     0.392949     0.240736     0.162721  Biso 1.000000     H
    H   1.0     0.892958     0.240734     0.162721  Biso 1.000000     H
    H   1.0     0.256842     0.115128     0.242814  Biso 1.000000     H
    H   1.0     0.756851     0.115124     0.242815  Biso 1.000000     H
    H   1.0     0.266370     0.198491     0.173028  Biso 1.000000     H
    H   1.0     0.766379     0.198487     0.173029  Biso 1.000000     H
    H   1.0     0.460148     0.877926     0.138116  Biso 1.000000     H
    H   1.0     0.960157     0.877923     0.138116  Biso 1.000000     H
    H   1.0     0.439986     0.752758     0.065338  Biso 1.000000     H
    H   1.0     0.939995     0.752757     0.065338  Biso 1.000000     H
    H   1.0     0.221399     0.955517     0.062186  Biso 1.000000     H
    H   1.0     0.721408     0.955515     0.062186  Biso 1.000000     H
    H   1.0     0.232010     0.089911     0.131764  Biso 1.000000     H
    H   1.0     0.732019     0.089908     0.131764  Biso 1.000000     H
    H   1.0     0.387387     0.856548     0.807786  Biso 1.000000     H
    H   1.0     0.887398     0.856546     0.807786  Biso 1.000000     H
    H   1.0     0.482941     0.509978     0.813638  Biso 1.000000     H
    H   1.0     0.982945     0.509975     0.813635  Biso 1.000000     H
    H   1.0     0.028965     0.845225     0.926733  Biso 1.000000     H
    H   1.0     0.528973     0.845225     0.926733  Biso 1.000000     H
    H   1.0     0.096837     0.000000     0.060655  Biso 1.000000     H
    H   1.0     0.596846     0.000000     0.060656  Biso 1.000000     H
    H   1.0     0.231844     0.643385     0.455692  Biso 1.000000     H
    H   1.0     0.731851     0.643387     0.455690  Biso 1.000000     H
    H   1.0     0.317281     0.495081     0.380222  Biso 1.000000     H
    H   1.0     0.817288     0.495081     0.380221  Biso 1.000000     H
    H   1.0     0.126871     0.403364     0.369932  Biso 1.000000     H
    H   1.0     0.626879     0.403363     0.369932  Biso 1.000000     H
    H   1.0     0.051670     0.549952     0.446065  Biso 1.000000     H
    H   1.0     0.551677     0.549952     0.446063  Biso 1.000000     H
    H   1.0     0.205432     0.329479     0.271304  Biso 1.000000     H
    H   1.0     0.705441     0.329476     0.271304  Biso 1.000000     H
    H   1.0     0.237932     0.239736     0.337169  Biso 1.000000     H
    H   1.0     0.737941     0.239733     0.337170  Biso 1.000000     H
    H   1.0     0.436182     0.116227     0.258382  Biso 1.000000     H
    H   1.0     0.936191     0.116225     0.258382  Biso 1.000000     H
    H   1.0     0.385531     0.200491     0.327457  Biso 1.000000     H
    H   1.0     0.885540     0.200489     0.327457  Biso 1.000000     H
    H   1.0     0.350429     0.877964     0.362236  Biso 1.000000     H
    H   1.0     0.850438     0.877963     0.362238  Biso 1.000000     H
    H   1.0     0.433229     0.750638     0.433625  Biso 1.000000     H
    H   1.0     0.933238     0.750637     0.433628  Biso 1.000000     H
    H   1.0     0.051331     0.954353     0.438347  Biso 1.000000     H
    H   1.0     0.551340     0.954353     0.438348  Biso 1.000000     H
    H   1.0     0.473576     0.090788     0.369903  Biso 1.000000     H
    H   1.0     0.973586     0.090787     0.369902  Biso 1.000000     H
    H   1.0     0.432347     0.853693     0.688737  Biso 1.000000     H
    H   1.0     0.932358     0.853692     0.688737  Biso 1.000000     H
    H   1.0     0.020673     0.506733     0.692584  Biso 1.000000     H
    H   1.0     0.520688     0.506735     0.692587  Biso 1.000000     H
    H   1.0     0.298288     0.843956     0.572594  Biso 1.000000     H
    H   1.0     0.798296     0.843954     0.572595  Biso 1.000000     H
    H   1.0     0.148334     0.000000     0.440077  Biso 1.000000     H
    H   1.0     0.648342     0.000000     0.440077  Biso 1.000000     H
    H   1.0     0.305056     0.354667     0.953274  Biso 1.000000     H
    H   1.0     0.805067     0.354664     0.953273  Biso 1.000000     H
    H   1.0     0.314890     0.504070     0.876879  Biso 1.000000     H
    H   1.0     0.814901     0.504067     0.876878  Biso 1.000000     H
    H   1.0     0.077638     0.597000     0.874610  Biso 1.000000     H
    H   1.0     0.577648     0.596999     0.874611  Biso 1.000000     H
    H   1.0     0.077535     0.448896     0.951092  Biso 1.000000     H
    H   1.0     0.577545     0.448896     0.951093  Biso 1.000000     H
    H   1.0     0.118663     0.668988     0.772009  Biso 1.000000     H
    H   1.0     0.618673     0.668986     0.772009  Biso 1.000000     H
    H   1.0     0.107009     0.759334     0.837292  Biso 1.000000     H
    H   1.0     0.607019     0.759332     0.837293  Biso 1.000000     H
    H   1.0     0.243120     0.884937     0.757200  Biso 1.000000     H
    H   1.0     0.743130     0.884935     0.757200  Biso 1.000000     H
    H   1.0     0.233583     0.801578     0.826986  Biso 1.000000     H
    H   1.0     0.733593     0.801576     0.826986  Biso 1.000000     H
    H   1.0     0.039815     0.122151     0.861894  Biso 1.000000     H
    H   1.0     0.539824     0.122149     0.861894  Biso 1.000000     H
    H   1.0     0.059980     0.247312     0.934674  Biso 1.000000     H
    H   1.0     0.559990     0.247311     0.934674  Biso 1.000000     H
    H   1.0     0.278563     0.044540     0.937830  Biso 1.000000     H
    H   1.0     0.778573     0.044538     0.937830  Biso 1.000000     H
    H   1.0     0.267949     0.910150     0.868251  Biso 1.000000     H
    H   1.0     0.767958     0.910148     0.868251  Biso 1.000000     H
    H   1.0     0.112577     0.143502     0.192234  Biso 1.000000     H
    H   1.0     0.612588     0.143500     0.192234  Biso 1.000000     H
    H   1.0     0.017039     0.490072     0.186371  Biso 1.000000     H
    H   1.0     0.517048     0.490071     0.186370  Biso 1.000000     H
    H   1.0     0.471003     0.154842     0.073282  Biso 1.000000     H
    H   1.0     0.971012     0.154842     0.073283  Biso 1.000000     H
    H   1.0     0.403129    -0.008333     0.939362  Biso 1.000000     H
    H   1.0     0.903139    -0.008336     0.939363  Biso 1.000000     H
    H   1.0     0.268101     0.356684     0.544324  Biso 1.000000     H
    H   1.0     0.768108     0.356686     0.544323  Biso 1.000000     H
    H   1.0     0.182666     0.504998     0.619788  Biso 1.000000     H
    H   1.0     0.682673     0.504998     0.619787  Biso 1.000000     H
    H   1.0     0.373080     0.596704     0.630078  Biso 1.000000     H
    H   1.0     0.873088     0.596703     0.630076  Biso 1.000000     H
    H   1.0     0.448279     0.450110     0.553949  Biso 1.000000     H
    H   1.0     0.948287     0.450110     0.553947  Biso 1.000000     H
    H   1.0     0.294519     0.670585     0.728705  Biso 1.000000     H
    H   1.0     0.794529     0.670582     0.728705  Biso 1.000000     H
    H   1.0     0.262024     0.760339     0.662843  Biso 1.000000     H
    H   1.0     0.762034     0.760337     0.662843  Biso 1.000000     H
    H   1.0     0.063774     0.883858     0.741629  Biso 1.000000     H
    H   1.0     0.563784     0.883856     0.741630  Biso 1.000000     H
    H   1.0     0.114422     0.799593     0.672555  Biso 1.000000     H
    H   1.0     0.614432     0.799591     0.672556  Biso 1.000000     H
    H   1.0     0.149523     0.122124     0.637774  Biso 1.000000     H
    H   1.0     0.649532     0.122123     0.637776  Biso 1.000000     H
    H   1.0     0.066721     0.249445     0.566384  Biso 1.000000     H
    H   1.0     0.566731     0.249444     0.566386  Biso 1.000000     H
    H   1.0     0.448631     0.045713     0.561661  Biso 1.000000     H
    H   1.0     0.948640     0.045714     0.561661  Biso 1.000000     H
    H   1.0     0.026385     0.909286     0.630106  Biso 1.000000     H
    H   1.0     0.526395     0.909285     0.630106  Biso 1.000000     H
    H   1.0     0.067609     0.146369     0.311281  Biso 1.000000     H
    H   1.0     0.567617     0.146368     0.311281  Biso 1.000000     H
    H   1.0     0.479290     0.493327     0.307419  Biso 1.000000     H
    H   1.0     0.979302     0.493328     0.307421  Biso 1.000000     H
    H   1.0     0.201669     0.156105     0.427408  Biso 1.000000     H
    H   1.0     0.701676     0.156104     0.427411  Biso 1.000000     H
    H   1.0     0.351620    -0.008788     0.559929  Biso 1.000000     H
    H   1.0     0.851627    -0.008789     0.559930  Biso 1.000000     H
    C   1.0     0.243137     0.590792     0.066678  Biso 1.000000     C
    C   1.0     0.743145     0.590790     0.066678  Biso 1.000000     C
    C   1.0     0.237823     0.508723     0.108847  Biso 1.000000     C
    C   1.0     0.737831     0.508721     0.108848  Biso 1.000000     C
    C   1.0     0.301738     0.440733     0.133398  Biso 1.000000     C
    C   1.0     0.801746     0.440731     0.133399  Biso 1.000000     C
    C   1.0     0.369828     0.454856     0.110891  Biso 1.000000     C
    C   1.0     0.869837     0.454854     0.110891  Biso 1.000000     C
    C   1.0     0.370277     0.539002     0.067980  Biso 1.000000     C
    C   1.0     0.870285     0.539001     0.067981  Biso 1.000000     C
    C   1.0     0.353678     0.289663     0.202987  Biso 1.000000     C
    C   1.0     0.853687     0.289661     0.202987  Biso 1.000000     C
    C   1.0     0.294898     0.148492     0.211289  Biso 1.000000     C
    C   1.0     0.794907     0.148489     0.211290  Biso 1.000000     C
    C   1.0     0.346960     0.992813     0.143428  Biso 1.000000     C
    C   1.0     0.846968     0.992811     0.143428  Biso 1.000000     C
    C   1.0     0.406045     0.896494     0.123088  Biso 1.000000     C
    C   1.0     0.906054     0.896492     0.123088  Biso 1.000000     C
    C   1.0     0.394893     0.827279     0.082480  Biso 1.000000     C
    C   1.0     0.894902     0.827277     0.082480  Biso 1.000000     C
    C   1.0     0.273102     0.941054     0.080663  Biso 1.000000     C
    C   1.0     0.773111     0.941052     0.080663  Biso 1.000000     C
    C   1.0     0.279092     0.014789     0.121225  Biso 1.000000     C
    C   1.0     0.779100     0.014786     0.121225  Biso 1.000000     C
    C   1.0     0.406708     0.683034     0.890452  Biso 1.000000     C
    C   1.0     0.906716     0.683032     0.890451  Biso 1.000000     C
    C   1.0     0.432202     0.683217     0.818298  Biso 1.000000     C
    C   1.0     0.932210     0.683215     0.818297  Biso 1.000000     C
    C   1.0     0.417613     0.779949     0.782626  Biso 1.000000     C
    C   1.0     0.917623     0.779947     0.782625  Biso 1.000000     C
    C   1.0     0.470892     0.584793     0.785587  Biso 1.000000     C
    C   1.0     0.970898     0.584791     0.785585  Biso 1.000000     C
    C   1.0     0.147205     0.830493     0.982055  Biso 1.000000     C
    C   1.0     0.647214     0.830493     0.982055  Biso 1.000000     C
    C   1.0     0.070820     0.917409     0.992758  Biso 1.000000     C
    C   1.0     0.570829     0.917409     0.992758  Biso 1.000000     C
    C   1.0     0.015759     0.913653     0.958622  Biso 1.000000     C
    C   1.0     0.515768     0.913654     0.958621  Biso 1.000000     C
    C   1.0     0.054086     0.000000     0.034425  Biso 1.000000     C
    C   1.0     0.554094     0.000000     0.034425  Biso 1.000000     C
    C   1.0     0.211228     0.589407     0.434196  Biso 1.000000     C
    C   1.0     0.711236     0.589407     0.434194  Biso 1.000000     C
    C   1.0     0.258084     0.507926     0.392482  Biso 1.000000     C
    C   1.0     0.758092     0.507926     0.392481  Biso 1.000000     C
    C   1.0     0.228583     0.440508     0.366084  Biso 1.000000     C
    C   1.0     0.728591     0.440507     0.366084  Biso 1.000000     C
    C   1.0     0.153178     0.454602     0.386315  Biso 1.000000     C
    C   1.0     0.653186     0.454602     0.386314  Biso 1.000000     C
    C   1.0     0.110133     0.538085     0.428950  Biso 1.000000     C
    C   1.0     0.610140     0.538085     0.428948  Biso 1.000000     C
    C   1.0     0.253112     0.289003     0.296875  Biso 1.000000     C
    C   1.0     0.753121     0.289001     0.296876  Biso 1.000000     C
    C   1.0     0.381715     0.149759     0.289672  Biso 1.000000     C
    C   1.0     0.881724     0.149756     0.289673  Biso 1.000000     C
    C   1.0     0.406677     0.993455     0.357728  Biso 1.000000     C
    C   1.0     0.906687     0.993454     0.357729  Biso 1.000000     C
    C   1.0     0.395424     0.896345     0.377366  Biso 1.000000     C
    C   1.0     0.895433     0.896343     0.377368  Biso 1.000000     C
    C   1.0     0.441244     0.825942     0.417235  Biso 1.000000     C
    C   1.0     0.941254     0.825941     0.417236  Biso 1.000000     C
    C   1.0     0.006671     0.940193     0.419820  Biso 1.000000     C
    C   1.0     0.506679     0.940193     0.419820  Biso 1.000000     C
    C   1.0     0.463798     0.015144     0.379965  Biso 1.000000     C
    C   1.0     0.963808     0.015142     0.379965  Biso 1.000000     C
    C   1.0     0.006128     0.675804     0.611002  Biso 1.000000     C
    C   1.0     0.506141     0.675801     0.611005  Biso 1.000000     C
    C   1.0     0.479550     0.679792     0.683119  Biso 1.000000     C
    C   1.0     0.979556     0.679791     0.683117  Biso 1.000000     C
    C   1.0     0.442371     0.778349     0.716052  Biso 1.000000     C
    C   1.0     0.942381     0.778347     0.716051  Biso 1.000000     C
    C   1.0     0.492655     0.583013     0.718581  Biso 1.000000     C
    C   1.0     0.992660     0.583012     0.718578  Biso 1.000000     C
    C   1.0     0.186857     0.829468     0.517896  Biso 1.000000     C
    C   1.0     0.686864     0.829468     0.517898  Biso 1.000000     C
    C   1.0     0.220062     0.917003     0.507292  Biso 1.000000     C
    C   1.0     0.720069     0.917002     0.507294  Biso 1.000000     C
    C   1.0     0.277340     0.912969     0.541028  Biso 1.000000     C
    C   1.0     0.777347     0.912967     0.541029  Biso 1.000000     C
    C   1.0     0.193178     0.000000     0.465984  Biso 1.000000     C
    C   1.0     0.693185     0.000000     0.465985  Biso 1.000000     C
    C   1.0     0.256829     0.409269     0.933328  Biso 1.000000     C
    C   1.0     0.756839     0.409267     0.933328  Biso 1.000000     C
    C   1.0     0.262138     0.491341     0.891158  Biso 1.000000     C
    C   1.0     0.762148     0.491339     0.891158  Biso 1.000000     C
    C   1.0     0.198221     0.559329     0.866610  Biso 1.000000     C
    C   1.0     0.698231     0.559328     0.866610  Biso 1.000000     C
    C   1.0     0.130133     0.545202     0.889122  Biso 1.000000     C
    C   1.0     0.630142     0.545201     0.889123  Biso 1.000000     C
    C   1.0     0.129690     0.461052     0.932033  Biso 1.000000     C
    C   1.0     0.629699     0.461051     0.932033  Biso 1.000000     C
    C   1.0     0.146276     0.710409     0.797024  Biso 1.000000     C
    C   1.0     0.646285     0.710407     0.797024  Biso 1.000000     C
    C   1.0     0.205060     0.851578     0.788723  Biso 1.000000     C
    C   1.0     0.705069     0.851575     0.788723  Biso 1.000000     C
    C   1.0     0.153001     0.007257     0.856584  Biso 1.000000     C
    C   1.0     0.653011     0.007255     0.856584  Biso 1.000000     C
    C   1.0     0.093917     0.103578     0.876923  Biso 1.000000     C
    C   1.0     0.593927     0.103576     0.876924  Biso 1.000000     C
    C   1.0     0.105071     0.172790     0.917533  Biso 1.000000     C
    C   1.0     0.605081     0.172788     0.917533  Biso 1.000000     C
    C   1.0     0.226860     0.059006     0.919352  Biso 1.000000     C
    C   1.0     0.726870     0.059005     0.919352  Biso 1.000000     C
    C   1.0     0.220869     0.985274     0.878790  Biso 1.000000     C
    C   1.0     0.720879     0.985272     0.878790  Biso 1.000000     C
    C   1.0     0.093270     0.317007     0.109562  Biso 1.000000     C
    C   1.0     0.593280     0.317006     0.109562  Biso 1.000000     C
    C   1.0     0.067768     0.316832     0.181716  Biso 1.000000     C
    C   1.0     0.567776     0.316830     0.181715  Biso 1.000000     C
    C   1.0     0.082351     0.220104     0.217391  Biso 1.000000     C
    C   1.0     0.582360     0.220103     0.217390  Biso 1.000000     C
    C   1.0     0.029081     0.415259     0.214424  Biso 1.000000     C
    C   1.0     0.529088     0.415258     0.214422  Biso 1.000000     C
    C   1.0     0.352762     0.169571     0.017958  Biso 1.000000     C
    C   1.0     0.852771     0.169569     0.017958  Biso 1.000000     C
    C   1.0     0.429147     0.082657     0.007259  Biso 1.000000     C
    C   1.0     0.929157     0.082657     0.007258  Biso 1.000000     C
    C   1.0     0.484208     0.086413     0.041395  Biso 1.000000     C
    C   1.0     0.984217     0.086413     0.041394  Biso 1.000000     C
    C   1.0     0.445881    -0.004677     0.965592  Biso 1.000000     C
    C   1.0     0.945891    -0.004678     0.965592  Biso 1.000000     C
    C   1.0     0.288718     0.410664     0.565818  Biso 1.000000     C
    C   1.0     0.788726     0.410664     0.565817  Biso 1.000000     C
    C   1.0     0.241863     0.492148     0.607529  Biso 1.000000     C
    C   1.0     0.741870     0.492149     0.607528  Biso 1.000000     C
    C   1.0     0.271365     0.559567     0.633925  Biso 1.000000     C
    C   1.0     0.771373     0.559567     0.633925  Biso 1.000000     C
    C   1.0     0.346771     0.545466     0.613697  Biso 1.000000     C
    C   1.0     0.846780     0.545465     0.613696  Biso 1.000000     C
    C   1.0     0.389816     0.461980     0.571064  Biso 1.000000     C
    C   1.0     0.889823     0.461980     0.571062  Biso 1.000000     C
    C   1.0     0.246840     0.711070     0.703134  Biso 1.000000     C
    C   1.0     0.746850     0.711068     0.703134  Biso 1.000000     C
    C   1.0     0.118241     0.850323     0.710339  Biso 1.000000     C
    C   1.0     0.618251     0.850321     0.710340  Biso 1.000000     C
    C   1.0     0.093280     0.006625     0.642282  Biso 1.000000     C
    C   1.0     0.593290     0.006623     0.642282  Biso 1.000000     C
    C   1.0     0.104530     0.103738     0.622643  Biso 1.000000     C
    C   1.0     0.604540     0.103737     0.622645  Biso 1.000000     C
    C   1.0     0.058708     0.174138     0.582774  Biso 1.000000     C
    C   1.0     0.558718     0.174137     0.582776  Biso 1.000000     C
    C   1.0     0.493290     0.059878     0.580189  Biso 1.000000     C
    C   1.0     0.993298     0.059879     0.580188  Biso 1.000000     C
    C   1.0     0.036162     0.984932     0.620044  Biso 1.000000     C
    C   1.0     0.536172     0.984930     0.620044  Biso 1.000000     C
    C   1.0     0.493824     0.324268     0.389008  Biso 1.000000     C
    C   1.0     0.993834     0.324266     0.389010  Biso 1.000000     C
    C   1.0     0.020414     0.320270     0.316896  Biso 1.000000     C
    C   1.0     0.520424     0.320269     0.316894  Biso 1.000000     C
    C   1.0     0.057590     0.221711     0.283965  Biso 1.000000     C
    C   1.0     0.557599     0.221710     0.283964  Biso 1.000000     C
    C   1.0     0.007315     0.417046     0.281430  Biso 1.000000     C
    C   1.0     0.507323     0.417045     0.281429  Biso 1.000000     C
    C   1.0     0.313110     0.170579     0.482102  Biso 1.000000     C
    C   1.0     0.813116     0.170579     0.482105  Biso 1.000000     C
    C   1.0     0.279894     0.083058     0.492712  Biso 1.000000     C
    C   1.0     0.779902     0.083056     0.492712  Biso 1.000000     C
    C   1.0     0.222616     0.087094     0.458976  Biso 1.000000     C
    C   1.0     0.722623     0.087092     0.458977  Biso 1.000000     C
    C   1.0     0.306776    -0.004943     0.534021  Biso 1.000000     C
    C   1.0     0.806784    -0.004945     0.534022  Biso 1.000000     C
    C   1.0     0.321259     0.217959     0.250217  Biso 1.000000     C
    C   1.0     0.821267     0.217957     0.250217  Biso 1.000000     C
    C   1.0     0.178697     0.782115     0.749794  Biso 1.000000     C
    C   1.0     0.678706     0.782112     0.749795  Biso 1.000000     C
    N   1.0     0.308134     0.608314     0.046940  Biso 1.000000     N
    N   1.0     0.808142     0.608313     0.046941  Biso 1.000000     N
    N   1.0     0.329086     0.847560     0.061246  Biso 1.000000     N
    N   1.0     0.829095     0.847559     0.061246  Biso 1.000000     N
    N   1.0     0.137372     0.606826     0.451758  Biso 1.000000     N
    N   1.0     0.637380     0.606826     0.451756  Biso 1.000000     N
    N   1.0    -0.002787     0.845812     0.438476  Biso 1.000000     N
    N   1.0     0.497222     0.845812     0.438475  Biso 1.000000     N
    N   1.0     0.191835     0.391740     0.953070  Biso 1.000000     N
    N   1.0     0.691845     0.391739     0.953070  Biso 1.000000     N
    N   1.0     0.170878     0.152502     0.938768  Biso 1.000000     N
    N   1.0     0.670888     0.152501     0.938768  Biso 1.000000     N
    N   1.0     0.362575     0.393239     0.548256  Biso 1.000000     N
    N   1.0     0.862582     0.393240     0.548254  Biso 1.000000     N
    N   1.0     0.502744     0.154262     0.561534  Biso 1.000000     N
    N   1.0     0.000000     0.154262     0.561533  Biso 1.000000     N
    O   1.0     0.291050     0.367757     0.177870  Biso 1.000000     O
    O   1.0     0.791058     0.367754     0.177870  Biso 1.000000     O
    O   1.0     0.359487     0.059265     0.182661  Biso 1.000000     O
    O   1.0     0.859496     0.059262     0.182662  Biso 1.000000     O
    O   1.0     0.346613     0.764561     0.911434  Biso 1.000000     O
    O   1.0     0.846622     0.764559     0.911434  Biso 1.000000     O
    O   1.0     0.441643     0.608565     0.924982  Biso 1.000000     O
    O   1.0     0.941651     0.608563     0.924981  Biso 1.000000     O
    O   1.0     0.193790     0.840404     0.016962  Biso 1.000000     O
    O   1.0     0.693799     0.840404     0.016962  Biso 1.000000     O
    O   1.0     0.162041     0.756916     0.942167  Biso 1.000000     O
    O   1.0     0.662049     0.756916     0.942167  Biso 1.000000     O
    O   1.0     0.276257     0.368042     0.322156  Biso 1.000000     O
    O   1.0     0.776265     0.368039     0.322157  Biso 1.000000     O
    O   1.0     0.360869     0.060801     0.319116  Biso 1.000000     O
    O   1.0     0.860878     0.060799     0.319117  Biso 1.000000     O
    O   1.0     0.019811     0.761426     0.587233  Biso 1.000000     O
    O   1.0     0.519814     0.761428     0.587230  Biso 1.000000     O
    O   1.0     0.014231     0.595078     0.579090  Biso 1.000000     O
    O   1.0     0.514253     0.595066     0.579097  Biso 1.000000     O
    O   1.0     0.135365     0.839342     0.483057  Biso 1.000000     O
    O   1.0     0.635374     0.839340     0.483057  Biso 1.000000     O
    O   1.0     0.208616     0.755366     0.557629  Biso 1.000000     O
    O   1.0     0.708619     0.755370     0.557634  Biso 1.000000     O
    O   1.0     0.208905     0.632307     0.822137  Biso 1.000000     O
    O   1.0     0.708915     0.632305     0.822137  Biso 1.000000     O
    O   1.0     0.140473     0.940810     0.817348  Biso 1.000000     O
    O   1.0     0.640483     0.940808     0.817348  Biso 1.000000     O
    O   1.0     0.153361     0.235471     0.088583  Biso 1.000000     O
    O   1.0     0.653371     0.235471     0.088583  Biso 1.000000     O
    O   1.0     0.058347     0.391478     0.075028  Biso 1.000000     O
    O   1.0     0.558357     0.391477     0.075027  Biso 1.000000     O
    O   1.0     0.306178     0.159641     0.983055  Biso 1.000000     O
    O   1.0     0.806188     0.159640     0.983055  Biso 1.000000     O
    O   1.0     0.337923     0.243161     0.057837  Biso 1.000000     O
    O   1.0     0.837932     0.243160     0.057837  Biso 1.000000     O
    O   1.0     0.223690     0.632041     0.677849  Biso 1.000000     O
    O   1.0     0.723699     0.632040     0.677849  Biso 1.000000     O
    O   1.0     0.139089     0.939280     0.680895  Biso 1.000000     O
    O   1.0     0.639099     0.939278     0.680895  Biso 1.000000     O
    O   1.0     0.480139     0.238648     0.412780  Biso 1.000000     O
    O   1.0     0.980145     0.238648     0.412779  Biso 1.000000     O
    O   1.0     0.485713     0.405001     0.420916  Biso 1.000000     O
    O   1.0     0.985730     0.404993     0.420921  Biso 1.000000     O
    O   1.0     0.364591     0.160708     0.516954  Biso 1.000000     O
    O   1.0     0.864599     0.160706     0.516954  Biso 1.000000     O
    O   1.0     0.291376     0.244664     0.442354  Biso 1.000000     O
    O   1.0     0.791378     0.244669     0.442360  Biso 1.000000     O
   Zn   1.0     0.301978     0.750877     0.002026  Biso 1.000000    Zn
   Zn   1.0     0.801986     0.750876     0.002026  Biso 1.000000    Zn
   Zn   1.0     0.072532     0.747440     0.497407  Biso 1.000000    Zn
   Zn   1.0     0.572539     0.747439     0.497406  Biso 1.000000    Zn
   Zn   1.0     0.197995     0.249170     0.997990  Biso 1.000000    Zn
   Zn   1.0     0.698004     0.249169     0.997990  Biso 1.000000    Zn
   Zn   1.0     0.427413     0.252621     0.502603  Biso 1.000000    Zn
   Zn   1.0     0.927420     0.252621     0.502603  Biso 1.000000    Zn
