#======================================================================

# CRYSTAL DATA

#----------------------------------------------------------------------

data_VESTA_phase_1


_pd_phase_name                         MOF
_cell_length_a                         14.08100
_cell_length_b                         20.90300
_cell_length_c                         20.87100
_cell_angle_alpha                      61.89500
_cell_angle_beta                       70.22200
_cell_angle_gamma                      70.40500
_symmetry_space_group_name_H-M         "P 1"
_symmetry_Int_Tables_number            1

loop_
_symmetry_equiv_pos_as_xyz
   "x, y, z"

loop_
   _atom_site_label
   _atom_site_occupancy
   _atom_site_fract_x
   _atom_site_fract_y
   _atom_site_fract_z
   _atom_site_adp_type
   _atom_site_B_iso_or_equiv
   _atom_site_type_symbol
    H   1.0     0.493368     0.851154     0.924191  Biso 1.000000     H
    H   1.0     0.555663     0.962351     0.818620  Biso 1.000000     H
    H   1.0     0.254512     0.050407     0.766641  Biso 1.000000     H
    H   1.0     0.196122     0.935879     0.868709  Biso 1.000000     H
    H   1.0     0.260721     0.698941     0.926403  Biso 1.000000     H
    H   1.0     0.331227     0.611668     0.863145  Biso 1.000000     H
    H   1.0     0.409951     0.439498     0.069623  Biso 1.000000     H
    H   1.0     0.335966     0.534033     0.123963  Biso 1.000000     H
    H   1.0     0.442589     0.482072     0.826063  Biso 1.000000     H
    H   1.0     0.310602     0.513007     0.865629  Biso 1.000000     H
    H   1.0     0.514517     0.352548     0.855347  Biso 1.000000     H
    H   1.0     0.480688     0.321975     0.952890  Biso 1.000000     H
    H   1.0     0.415713     0.138502     0.933519  Biso 1.000000     H
    H   1.0     0.523410     0.069155     0.854185  Biso 1.000000     H
    H   1.0     0.700992     0.227988     0.726401  Biso 1.000000     H
    H   1.0     0.609191     0.300622     0.802352  Biso 1.000000     H
    H   1.0     0.731549     0.424618     0.351012  Biso 1.000000     H
    H   1.0     0.663809     0.318812     0.462072  Biso 1.000000     H
    H   1.0     0.929351     0.266171     0.550011  Biso 1.000000     H
    H   1.0     0.999951     0.368579     0.435597  Biso 1.000000     H
    H   1.0     0.113933     0.426790     0.199936  Biso 1.000000     H
    H   1.0     0.192408     0.362652     0.113303  Biso 1.000000     H
    H   1.0     0.081536     0.568243     0.939673  Biso 1.000000     H
    H   1.0     0.000000     0.623584     0.033592  Biso 1.000000     H
    H   1.0     0.247656     0.324893     0.982801  Biso 1.000000     H
    H   1.0     0.308804     0.364079     0.014395  Biso 1.000000     H
    H   1.0     0.275785     0.355041     0.852841  Biso 1.000000     H
    H   1.0     0.242986     0.452255     0.822593  Biso 1.000000     H
    H   1.0     0.511798     0.433048     0.638864  Biso 1.000000     H
    H   1.0     0.553946     0.353698     0.569378  Biso 1.000000     H
    H   1.0     0.344686     0.226129     0.727916  Biso 1.000000     H
    H   1.0     0.286895     0.302018     0.800722  Biso 1.000000     H
    H   1.0     0.993094     0.925203     0.850240  Biso 1.000000     H
    H   1.0     0.056182     0.819548     0.960931  Biso 1.000000     H
    H   1.0     0.755430     0.765974     0.050630  Biso 1.000000     H
    H   1.0     0.696298     0.867979     0.936547  Biso 1.000000     H
    H   1.0     0.757791     0.926303     0.700030  Biso 1.000000     H
    H   1.0     0.828751     0.863013     0.612704  Biso 1.000000     H
    H   1.0     0.911164     0.068419     0.440217  Biso 1.000000     H
    H   1.0     0.836586     0.122831     0.534841  Biso 1.000000     H
    H   1.0     0.942065     0.825614     0.482779  Biso 1.000000     H
    H   1.0     0.810083     0.865143     0.513623  Biso 1.000000     H
    H   1.0     0.015123     0.854740     0.353021  Biso 1.000000     H
    H   1.0     0.982424     0.952030     0.322370  Biso 1.000000     H
    H   1.0     0.917720     0.932257     0.138587  Biso 1.000000     H
    H   1.0     0.024919     0.852564     0.069540  Biso 1.000000     H
    H   1.0     0.202024     0.726201     0.228243  Biso 1.000000     H
    H   1.0     0.110658     0.802543     0.300566  Biso 1.000000     H
    H   1.0     0.231411     0.350876     0.425355  Biso 1.000000     H
    H   1.0     0.163206     0.461843     0.319963  Biso 1.000000     H
    H   1.0     0.429142     0.550334     0.265904  Biso 1.000000     H
    H   1.0     0.500245     0.436075     0.367725  Biso 1.000000     H
    H   1.0     0.616368     0.199807     0.425450  Biso 1.000000     H
    H   1.0     0.695542     0.112614     0.362086  Biso 1.000000     H
    H   1.0     0.580150     0.940708     0.568357  Biso 1.000000     H
    H   1.0     0.506227     0.035132     0.622817  Biso 1.000000     H
    H   1.0     0.749319     0.982504     0.324937  Biso 1.000000     H
    H   1.0     0.810944     0.013673     0.364181  Biso 1.000000     H
    H   1.0     0.776420     0.852967     0.354818  Biso 1.000000     H
    H   1.0     0.742490     0.822770     0.452314  Biso 1.000000     H
    H   1.0     0.000000     0.639371     0.433034  Biso 1.000000     H
    H   1.0     0.052655     0.570294     0.353244  Biso 1.000000     H
    H   1.0     0.844013     0.728209     0.226026  Biso 1.000000     H
    H   1.0     0.786202     0.800568     0.302394  Biso 1.000000     H
    H   1.0     0.006910     0.074790     0.149736  Biso 1.000000     H
    H   1.0     0.943807     0.180441     0.039049  Biso 1.000000     H
    H   1.0     0.244547     0.234035     0.949335  Biso 1.000000     H
    H   1.0     0.303694     0.132034     0.063415  Biso 1.000000     H
    H   1.0     0.242199     0.073698     0.299940  Biso 1.000000     H
    H   1.0     0.171248     0.136980     0.387273  Biso 1.000000     H
    H   1.0     0.088849     0.931568     0.559755  Biso 1.000000     H
    H   1.0     0.163412     0.877165     0.465123  Biso 1.000000     H
    H   1.0     0.057932     0.174369     0.517199  Biso 1.000000     H
    H   1.0     0.189919     0.134852     0.486352  Biso 1.000000     H
    H   1.0     0.984883     0.145257     0.646952  Biso 1.000000     H
    H   1.0     0.017581     0.047968     0.677607  Biso 1.000000     H
    H   1.0     0.082276     0.067743     0.861389  Biso 1.000000     H
    H   1.0     0.975070     0.147435     0.930435  Biso 1.000000     H
    H   1.0     0.797968     0.273793     0.771730  Biso 1.000000     H
    H   1.0     0.889342     0.197452     0.699407  Biso 1.000000     H
    H   1.0     0.768591     0.649132     0.574617  Biso 1.000000     H
    H   1.0     0.836796     0.538163     0.680009  Biso 1.000000     H
    H   1.0     0.570866     0.449670     0.734059  Biso 1.000000     H
    H   1.0     0.499760     0.563932     0.632242  Biso 1.000000     H
    H   1.0     0.383634     0.800193     0.574522  Biso 1.000000     H
    H   1.0     0.304463     0.887382     0.637890  Biso 1.000000     H
    H   1.0     0.419838     0.059294     0.431618  Biso 1.000000     H
    H   1.0     0.493759     0.964874     0.377154  Biso 1.000000     H
    H   1.0     0.250685     0.017498     0.675042  Biso 1.000000     H
    H   1.0     0.189064     0.986322     0.635801  Biso 1.000000     H
    H   1.0     0.223584     0.147035     0.645152  Biso 1.000000     H
    H   1.0     0.257513     0.177228     0.547656  Biso 1.000000     H
    H   1.0    -0.010554     0.360628     0.566933  Biso 1.000000     H
    H   1.0     0.947336     0.429706     0.646722  Biso 1.000000     H
    H   1.0     0.155972     0.271795     0.773947  Biso 1.000000     H
    H   1.0     0.213790     0.199433     0.697581  Biso 1.000000     H
    H   1.0     0.506616     0.148839     0.075773  Biso 1.000000     H
    H   1.0     0.444330     0.037642     0.181349  Biso 1.000000     H
    H   1.0     0.745479     0.949607     0.233331  Biso 1.000000     H
    H   1.0     0.803859     0.064137     0.131258  Biso 1.000000     H
    H   1.0     0.739262     0.301062     0.073564  Biso 1.000000     H
    H   1.0     0.668765     0.388338     0.136820  Biso 1.000000     H
    H   1.0     0.590023     0.560502     0.930345  Biso 1.000000     H
    H   1.0     0.663999     0.465965     0.876008  Biso 1.000000     H
    H   1.0     0.557374     0.517945     0.173896  Biso 1.000000     H
    H   1.0     0.689369     0.487006     0.134344  Biso 1.000000     H
    H   1.0     0.485439     0.647470     0.144599  Biso 1.000000     H
    H   1.0     0.519283     0.678032     0.047058  Biso 1.000000     H
    H   1.0     0.584246     0.861516     0.066423  Biso 1.000000     H
    H   1.0     0.476572     0.930853     0.145771  Biso 1.000000     H
    H   1.0     0.299016     0.772006     0.273579  Biso 1.000000     H
    H   1.0     0.390799     0.699378     0.197619  Biso 1.000000     H
    H   1.0     0.268452     0.575380     0.648962  Biso 1.000000     H
    H   1.0     0.336199     0.681183     0.537902  Biso 1.000000     H
    H   1.0     0.070664     0.733828     0.449955  Biso 1.000000     H
    H   1.0     0.000052     0.631427     0.564372  Biso 1.000000     H
    H   1.0     0.886059     0.573218     0.800024  Biso 1.000000     H
    H   1.0     0.807565     0.637356     0.886656  Biso 1.000000     H
    H   1.0     0.918423     0.431766     0.060293  Biso 1.000000     H
    H   1.0    -0.008464     0.376425     0.966374  Biso 1.000000     H
    H   1.0     0.752313     0.675117     0.017150  Biso 1.000000     H
    H   1.0     0.691154     0.635931     0.985564  Biso 1.000000     H
    H   1.0     0.724158     0.645000     0.147105  Biso 1.000000     H
    H   1.0     0.756990     0.547786     0.177355  Biso 1.000000     H
    H   1.0     0.488172     0.566975     0.361093  Biso 1.000000     H
    H   1.0     0.446039     0.646314     0.430587  Biso 1.000000     H
    H   1.0     0.655313     0.773876     0.272056  Biso 1.000000     H
    H   1.0     0.713091     0.697994     0.199243  Biso 1.000000     H
    C   1.0     0.304795     0.818779     0.964778  Biso 1.000000     C
    C   1.0     0.341576     0.886423     0.902174  Biso 1.000000     C
    C   1.0     0.442385     0.894699     0.888297  Biso 1.000000     C
    C   1.0     0.476551     0.957145     0.829864  Biso 1.000000     C
    C   1.0     0.408865     0.013657     0.785465  Biso 1.000000     C
    C   1.0     0.307187     0.006052     0.800480  Biso 1.000000     C
    C   1.0     0.274301     0.942786     0.857474  Biso 1.000000     C
    C   1.0     0.444048     0.080659     0.721079  Biso 1.000000     C
    C   1.0     0.293762     0.640621     0.956335  Biso 1.000000     C
    C   1.0     0.332995     0.591558     0.921321  Biso 1.000000     C
    C   1.0     0.373897     0.517180     0.962772  Biso 1.000000     C
    C   1.0     0.377077     0.496594     0.036512  Biso 1.000000     C
    C   1.0     0.336186     0.549197     0.066453  Biso 1.000000     C
    C   1.0     0.379945     0.468729     0.875816  Biso 1.000000     C
    C   1.0     0.453328     0.333683     0.904287  Biso 1.000000     C
    C   1.0     0.500430     0.227085     0.873263  Biso 1.000000     C
    C   1.0     0.479125     0.159684     0.888303  Biso 1.000000     C
    C   1.0     0.538436     0.121364     0.844024  Biso 1.000000     C
    C   1.0     0.637758     0.209633     0.773404  Biso 1.000000     C
    C   1.0     0.584275     0.251054     0.815563  Biso 1.000000     C
    C   1.0     0.911942     0.465127     0.318706  Biso 1.000000     C
    C   1.0     0.870243     0.402361     0.386253  Biso 1.000000     C
    C   1.0     0.775000     0.388551     0.394503  Biso 1.000000     C
    C   1.0     0.736927     0.329990     0.456874  Biso 1.000000     C
    C   1.0     0.792656     0.285358     0.513333  Biso 1.000000     C
    C   1.0     0.887021     0.300235     0.505720  Biso 1.000000     C
    C   1.0     0.926060     0.357395     0.442522  Biso 1.000000     C
    C   1.0     0.754815     0.220978     0.580343  Biso 1.000000     C
    C   1.0     0.109453     0.456326     0.141439  Biso 1.000000     C
    C   1.0     0.153392     0.420819     0.092744  Biso 1.000000     C
    C   1.0     0.145446     0.461735     0.018158  Biso 1.000000     C
    C   1.0     0.090298     0.535526    -0.003026  Biso 1.000000     C
    C   1.0     0.049567     0.566007     0.049229  Biso 1.000000     C
    C   1.0     0.273750     0.374478     0.969813  Biso 1.000000     C
    C   1.0     0.307095     0.403740     0.834210  Biso 1.000000     C
    C   1.0     0.398364     0.372885     0.727328  Biso 1.000000     C
    C   1.0     0.472522     0.387874     0.659948  Biso 1.000000     C
    C   1.0     0.496442     0.343593     0.621549  Biso 1.000000     C
    C   1.0     0.379150     0.273074     0.709671  Biso 1.000000     C
    C   1.0     0.348460     0.315208     0.751176  Biso 1.000000     C
    C   1.0     0.804138     0.964963     0.819088  Biso 1.000000     C
    C   1.0     0.841469     0.902339     0.886354  Biso 1.000000     C
    C   1.0     0.942401     0.888921     0.894022  Biso 1.000000     C
    C   1.0     0.977002     0.830496     0.956170  Biso 1.000000     C
    C   1.0     0.909613     0.785650     0.013043  Biso 1.000000     C
    C   1.0     0.807854     0.800180     0.006024  Biso 1.000000     C
    C   1.0     0.774542     0.857138     0.943007  Biso 1.000000     C
    C   1.0     0.945022     0.721359     0.079860  Biso 1.000000     C
    C   1.0     0.791720     0.956013     0.641624  Biso 1.000000     C
    C   1.0     0.831252     0.920969     0.592533  Biso 1.000000     C
    C   1.0     0.873444     0.962083     0.518056  Biso 1.000000     C
    C   1.0     0.877356     0.035548     0.497388  Biso 1.000000     C
    C   1.0     0.836101     0.065544     0.550026  Biso 1.000000     C
    C   1.0     0.879832     0.875290     0.469360  Biso 1.000000     C
    C   1.0     0.954548     0.903690     0.333988  Biso 1.000000     C
    C   1.0     0.002119     0.872674     0.227140  Biso 1.000000     C
    C   1.0     0.980916     0.887275     0.159805  Biso 1.000000     C
    C   1.0     0.039931     0.842830     0.121648  Biso 1.000000     C
    C   1.0     0.138981     0.772966     0.209860  Biso 1.000000     C
    C   1.0     0.085739     0.815305     0.251124  Biso 1.000000     C
    C   1.0     0.412346     0.318947     0.464713  Biso 1.000000     C
    C   1.0     0.370371     0.386394     0.402243  Biso 1.000000     C
    C   1.0     0.274844     0.394476     0.389034  Biso 1.000000     C
    C   1.0     0.236499     0.456784     0.330756  Biso 1.000000     C
    C   1.0     0.292248     0.513367     0.285846  Biso 1.000000     C
    C   1.0     0.386846     0.505934     0.300186  Biso 1.000000     C
    C   1.0     0.426155     0.442815     0.357019  Biso 1.000000     C
    C   1.0     0.254510     0.580276     0.221560  Biso 1.000000     C
    C   1.0     0.611019     0.141555     0.455335  Biso 1.000000     C
    C   1.0     0.655357     0.092545     0.420245  Biso 1.000000     C
    C   1.0     0.646346     0.018275     0.461573  Biso 1.000000     C
    C   1.0     0.589765    -0.002288     0.535308  Biso 1.000000     C
    C   1.0     0.548673     0.050252     0.565328  Biso 1.000000     C
    C   1.0     0.775215     0.969431     0.374650  Biso 1.000000     C
    C   1.0     0.807110     0.834243     0.403805  Biso 1.000000     C
    C   1.0     0.897549     0.727539     0.372996  Biso 1.000000     C
    C   1.0     0.971432     0.660412     0.387834  Biso 1.000000     C
    C   1.0     0.995328     0.622233     0.343334  Biso 1.000000     C
    C   1.0     0.878366     0.710009     0.272994  Biso 1.000000     C
    C   1.0     0.847707     0.751287     0.315357  Biso 1.000000     C
    C   1.0     0.354032     0.394673     0.895564  Biso 1.000000     C
    C   1.0     0.854657     0.895202     0.394949  Biso 1.000000     C
    C   1.0     0.195873     0.035037     0.180876  Biso 1.000000     C
    C   1.0     0.158541     0.097651     0.113605  Biso 1.000000     C
    C   1.0     0.057601     0.111071     0.105949  Biso 1.000000     C
    C   1.0     0.022985     0.169503     0.043810  Biso 1.000000     C
    C   1.0     0.090361     0.214361     0.986939  Biso 1.000000     C
    C   1.0     0.192126     0.199831     0.993947  Biso 1.000000     C
    C   1.0     0.225452     0.142866     0.056955  Biso 1.000000     C
    C   1.0     0.054948     0.278643     0.920118  Biso 1.000000     C
    C   1.0     0.208275     0.043985     0.358347  Biso 1.000000     C
    C   1.0     0.168748     0.079025     0.407442  Biso 1.000000     C
    C   1.0     0.126566     0.037906     0.481919  Biso 1.000000     C
    C   1.0     0.122651     0.964442     0.502583  Biso 1.000000     C
    C   1.0     0.163899     0.934451     0.449941  Biso 1.000000     C
    C   1.0     0.120174     0.124699     0.530617  Biso 1.000000     C
    C   1.0     0.045457     0.096308     0.665986  Biso 1.000000     C
    C   1.0     0.997880     0.127324     0.772834  Biso 1.000000     C
    C   1.0     0.019079     0.112724     0.840170  Biso 1.000000     C
    C   1.0     0.960060     0.157168     0.878327  Biso 1.000000     C
    C   1.0     0.861012     0.227029     0.790114  Biso 1.000000     C
    C   1.0     0.914258     0.184690     0.748850  Biso 1.000000     C
    C   1.0     0.587659     0.681061     0.535256  Biso 1.000000     C
    C   1.0     0.629636     0.613611     0.597723  Biso 1.000000     C
    C   1.0     0.725160     0.605531     0.610936  Biso 1.000000     C
    C   1.0     0.763504     0.543223     0.669215  Biso 1.000000     C
    C   1.0     0.707755     0.486640     0.714123  Biso 1.000000     C
    C   1.0     0.613160     0.494071     0.699780  Biso 1.000000     C
    C   1.0     0.573850     0.557191     0.642947  Biso 1.000000     C
    C   1.0     0.745497     0.419726     0.778403  Biso 1.000000     C
    C   1.0     0.388980     0.858445     0.544638  Biso 1.000000     C
    C   1.0     0.344644     0.907453     0.579730  Biso 1.000000     C
    C   1.0     0.353654     0.981723     0.538403  Biso 1.000000     C
    C   1.0     0.410227     0.000000     0.464666  Biso 1.000000     C
    C   1.0     0.451317     0.949751     0.434644  Biso 1.000000     C
    C   1.0     0.224791     0.030567     0.625330  Biso 1.000000     C
    C   1.0     0.192894     0.165756     0.596166  Biso 1.000000     C
    C   1.0     0.102449     0.272461     0.626974  Biso 1.000000     C
    C   1.0     0.028565     0.339587     0.612135  Biso 1.000000     C
    C   1.0     0.004664     0.377767     0.656633  Biso 1.000000     C
    C   1.0     0.121622     0.289993     0.726977  Biso 1.000000     C
    C   1.0     0.152285     0.248714     0.684616  Biso 1.000000     C
    C   1.0     0.695180     0.181227     0.035186  Biso 1.000000     C
    C   1.0     0.658408     0.113579     0.097789  Biso 1.000000     C
    C   1.0     0.557601     0.105298     0.111667  Biso 1.000000     C
    C   1.0     0.523440     0.042853     0.170105  Biso 1.000000     C
    C   1.0     0.591126     0.986349     0.214509  Biso 1.000000     C
    C   1.0     0.692802     0.993958     0.199490  Biso 1.000000     C
    C   1.0     0.725684     0.057224     0.142492  Biso 1.000000     C
    C   1.0     0.555946     0.919345     0.278894  Biso 1.000000     C
    C   1.0     0.706220     0.359381     0.043633  Biso 1.000000     C
    C   1.0     0.666991     0.408446     0.078646  Biso 1.000000     C
    C   1.0     0.626088     0.482823     0.037194  Biso 1.000000     C
    C   1.0     0.622900     0.503407     0.963456  Biso 1.000000     C
    C   1.0     0.663786     0.450803     0.933517  Biso 1.000000     C
    C   1.0     0.620026     0.531284     0.124148  Biso 1.000000     C
    C   1.0     0.546633     0.666332     0.095663  Biso 1.000000     C
    C   1.0     0.499540     0.772927     0.126690  Biso 1.000000     C
    C   1.0     0.520846     0.840329     0.111648  Biso 1.000000     C
    C   1.0     0.461547     0.878643     0.155934  Biso 1.000000     C
    C   1.0     0.362240     0.790366     0.226568  Biso 1.000000     C
    C   1.0     0.415712     0.748950     0.184403  Biso 1.000000     C
    C   1.0     0.088059     0.534873     0.681261  Biso 1.000000     C
    C   1.0     0.129767     0.597632     0.613711  Biso 1.000000     C
    C   1.0     0.225004     0.611445     0.605469  Biso 1.000000     C
    C   1.0     0.263077     0.670009     0.543101  Biso 1.000000     C
    C   1.0     0.207349     0.714645     0.486643  Biso 1.000000     C
    C   1.0     0.112986     0.699768     0.494250  Biso 1.000000     C
    C   1.0     0.073947     0.642606     0.557445  Biso 1.000000     C
    C   1.0     0.245202     0.779016     0.419626  Biso 1.000000     C
    C   1.0     0.890531     0.543683     0.858522  Biso 1.000000     C
    C   1.0     0.846582     0.579189     0.907216  Biso 1.000000     C
    C   1.0     0.854518     0.538273     0.981804  Biso 1.000000     C
    C   1.0     0.909668     0.464483     0.000000  Biso 1.000000     C
    C   1.0     0.950410     0.434002     0.950736  Biso 1.000000     C
    C   1.0     0.726211     0.625533     0.030144  Biso 1.000000     C
    C   1.0     0.692868     0.596292     0.165741  Biso 1.000000     C
    C   1.0     0.601612     0.627134     0.272632  Biso 1.000000     C
    C   1.0     0.527454     0.612144     0.340012  Biso 1.000000     C
    C   1.0     0.503543     0.656420     0.378416  Biso 1.000000     C
    C   1.0     0.620843     0.726934     0.290298  Biso 1.000000     C
    C   1.0     0.651523     0.684805     0.248788  Biso 1.000000     C
    C   1.0     0.145348     0.104794     0.605026  Biso 1.000000     C
    C   1.0     0.645931     0.605345     0.104394  Biso 1.000000     C
    N   1.0     0.293450     0.620450     0.027944  Biso 1.000000     N
    N   1.0     0.616354     0.146065     0.785978  Biso 1.000000     N
    N   1.0     0.059361     0.527941     0.120696  Biso 1.000000     N
    N   1.0     0.452006     0.285611     0.646132  Biso 1.000000     N
    N   1.0     0.792253     0.027333     0.621375  Biso 1.000000     N
    N   1.0     0.117550     0.785064     0.146420  Biso 1.000000     N
    N   1.0     0.559515     0.121413     0.526908  Biso 1.000000     N
    N   1.0     0.951087     0.646773     0.285306  Biso 1.000000     N
    N   1.0     0.207742     0.972665     0.378592  Biso 1.000000     N
    N   1.0     0.882440     0.214933     0.853553  Biso 1.000000     N
    N   1.0     0.440480     0.878589     0.473063  Biso 1.000000     N
    N   1.0     0.048902     0.353230     0.714663  Biso 1.000000     N
    N   1.0     0.706524     0.379550     0.972025  Biso 1.000000     N
    N   1.0     0.383642     0.853936     0.213989  Biso 1.000000     N
    N   1.0     0.940624     0.472068     0.879266  Biso 1.000000     N
    N   1.0     0.547987     0.714397     0.353837  Biso 1.000000     N
    O   1.0     0.218124     0.808930     0.967277  Biso 1.000000     O
    O   1.0     0.359257     0.774941     0.012622  Biso 1.000000     O
    O   1.0     0.377574     0.130781     0.683989  Biso 1.000000     O
    O   1.0     0.538344     0.085151     0.702524  Biso 1.000000     O
    O   1.0     0.412391     0.462154     0.937895  Biso 1.000000     O
    O   1.0     0.434606     0.264891     0.914874  Biso 1.000000     O
    O   1.0     0.005657     0.468015     0.309216  Biso 1.000000     O
    O   1.0     0.853750     0.512669     0.274624  Biso 1.000000     O
    O   1.0     0.808225     0.183836     0.630559  Biso 1.000000     O
    O   1.0     0.674579     0.202519     0.584731  Biso 1.000000     O
    O   1.0     0.185660     0.436183     0.963490  Biso 1.000000     O
    O   1.0     0.384070     0.414556     0.765210  Biso 1.000000     O
    O   1.0     0.717064     0.967325     0.809985  Biso 1.000000     O
    O   1.0     0.858494     0.012951     0.774887  Biso 1.000000     O
    O   1.0     0.878443     0.684184     0.130409  Biso 1.000000     O
    O   1.0     0.039369     0.703079     0.083759  Biso 1.000000     O
    O   1.0     0.912678     0.937058     0.463035  Biso 1.000000     O
    O   1.0     0.936524     0.914376     0.264873  Biso 1.000000     O
    O   1.0     0.506297     0.309629     0.466935  Biso 1.000000     O
    O   1.0     0.354102     0.274791     0.512703  Biso 1.000000     O
    O   1.0     0.308103     0.630525     0.184356  Biso 1.000000     O
    O   1.0     0.174281     0.584536     0.203253  Biso 1.000000     O
    O   1.0     0.686834     0.963370     0.436538  Biso 1.000000     O
    O   1.0     0.883462     0.765314     0.414740  Biso 1.000000     O
    O   1.0     0.282942     0.032684     0.189978  Biso 1.000000     O
    O   1.0     0.141527     0.987042     0.225076  Biso 1.000000     O
    O   1.0     0.121522     0.315824     0.869568  Biso 1.000000     O
    O   1.0     0.960600     0.296915     0.916223  Biso 1.000000     O
    O   1.0     0.087345     0.062923     0.536945  Biso 1.000000     O
    O   1.0     0.063482     0.085625     0.735100  Biso 1.000000     O
    O   1.0     0.493704     0.690384     0.533040  Biso 1.000000     O
    O   1.0     0.645914     0.725205     0.487254  Biso 1.000000     O
    O   1.0     0.691909     0.369473     0.815599  Biso 1.000000     O
    O   1.0     0.825716     0.415469     0.796720  Biso 1.000000     O
    O   1.0     0.313174     0.036624     0.563443  Biso 1.000000     O
    O   1.0     0.116543     0.234686     0.585228  Biso 1.000000     O
    O   1.0     0.781843     0.191084     0.032691  Biso 1.000000     O
    O   1.0     0.640729     0.225053     0.987332  Biso 1.000000     O
    O   1.0     0.622416     0.869229     0.315991  Biso 1.000000     O
    O   1.0     0.461652     0.914849     0.297446  Biso 1.000000     O
    O   1.0     0.587598     0.537853     0.062065  Biso 1.000000     O
    O   1.0     0.565346     0.735130     0.085066  Biso 1.000000     O
    O   1.0     0.994335     0.531999     0.690758  Biso 1.000000     O
    O   1.0     0.146256     0.487319     0.725335  Biso 1.000000     O
    O   1.0     0.191799     0.816153     0.369406  Biso 1.000000     O
    O   1.0     0.325431     0.797480     0.415243  Biso 1.000000     O
    O   1.0     0.814290     0.563822     0.036474  Biso 1.000000     O
    O   1.0     0.615899     0.585469     0.234745  Biso 1.000000     O
   Cd   1.0     0.215206     0.706286     0.085646  Biso 1.000000    Cd
   Cd   1.0    -0.006341     0.585899     0.206418  Biso 1.000000    Cd
   Cd   1.0     0.714164     0.085446     0.706963  Biso 1.000000    Cd
   Cd   1.0     0.494128     0.206835     0.585187  Biso 1.000000    Cd
   Cd   1.0     0.285840     0.914555     0.293004  Biso 1.000000    Cd
   Cd   1.0     0.505871     0.793170     0.414784  Biso 1.000000    Cd
   Cd   1.0     0.784778     0.293716     0.914322  Biso 1.000000    Cd
   Cd   1.0     0.000000     0.414106     0.793550  Biso 1.000000    Cd
