#======================================================================

# CRYSTAL DATA

#----------------------------------------------------------------------

data_VESTA_phase_1


_pd_phase_name                         MOF
_cell_length_a                         19.51800
_cell_length_b                         19.55100
_cell_length_c                         19.54200
_cell_angle_alpha                      72.05100
_cell_angle_beta                       71.97800
_cell_angle_gamma                      71.94300
_symmetry_space_group_name_H-M         "P 1"
_symmetry_Int_Tables_number            1

loop_
_symmetry_equiv_pos_as_xyz
   "x, y, z"

loop_
   _atom_site_label
   _atom_site_occupancy
   _atom_site_fract_x
   _atom_site_fract_y
   _atom_site_fract_z
   _atom_site_adp_type
   _atom_site_B_iso_or_equiv
   _atom_site_type_symbol
    H   1.0     0.480399     0.548726     0.024625  Biso 1.000000     H
    H   1.0     0.563730     0.729414     0.864334  Biso 1.000000     H
    H   1.0     0.621568     0.515326     0.814264  Biso 1.000000     H
    H   1.0     0.560918     0.758427     0.734371  Biso 1.000000     H
    H   1.0     0.668180     0.212502     0.146217  Biso 1.000000     H
    H   1.0     0.879197     0.071158     0.177765  Biso 1.000000     H
    H   1.0     0.828515     0.131452     0.963716  Biso 1.000000     H
    H   1.0     0.958909     0.132566     0.934277  Biso 1.000000     H
    H   1.0     0.024917     0.479289     0.547981  Biso 1.000000     H
    H   1.0     0.864506     0.560397     0.730423  Biso 1.000000     H
    H   1.0     0.813966     0.620696     0.516280  Biso 1.000000     H
    H   1.0     0.734162     0.559284     0.759847  Biso 1.000000     H
    H   1.0     0.145614     0.669982     0.213087  Biso 1.000000     H
    H   1.0     0.176809     0.880468     0.071662  Biso 1.000000     H
    H   1.0     0.962996     0.828952     0.131039  Biso 1.000000     H
    H   1.0     0.933182     0.959734     0.133168  Biso 1.000000     H
    H   1.0     0.547487     0.021881     0.480957  Biso 1.000000     H
    H   1.0     0.730025     0.862824     0.563048  Biso 1.000000     H
    H   1.0     0.516154     0.811438     0.622395  Biso 1.000000     H
    H   1.0     0.759831     0.732094     0.560882  Biso 1.000000     H
    H   1.0     0.212716     0.143284     0.669574  Biso 1.000000     H
    H   1.0     0.071364     0.176543     0.879921  Biso 1.000000     H
    H   1.0     0.129500     0.962464     0.829766  Biso 1.000000     H
    H   1.0     0.132133     0.933413     0.959739  Biso 1.000000     H
    H   1.0     0.047223     0.979344     0.524010  Biso 1.000000     H
    H   1.0     0.229688     0.060965     0.364618  Biso 1.000000     H
    H   1.0     0.015448     0.120880     0.313647  Biso 1.000000     H
    H   1.0     0.259436     0.059434     0.234302  Biso 1.000000     H
    H   1.0     0.712178     0.169150     0.645686  Biso 1.000000     H
    H   1.0     0.571795     0.380465     0.676882  Biso 1.000000     H
    H   1.0     0.630145     0.328467     0.463579  Biso 1.000000     H
    H   1.0     0.632877     0.459372     0.433834  Biso 1.000000     H
    H   1.0     0.980664     0.522807     0.048583  Biso 1.000000     H
    H   1.0     0.062787     0.363369     0.230580  Biso 1.000000     H
    H   1.0     0.121126     0.311577     0.017186  Biso 1.000000     H
    H   1.0     0.059999     0.232530     0.260243  Biso 1.000000     H
    H   1.0     0.168445     0.643681     0.713602  Biso 1.000000     H
    H   1.0     0.378692     0.676760     0.571670  Biso 1.000000     H
    H   1.0     0.329330     0.462347     0.630920  Biso 1.000000     H
    H   1.0     0.459347     0.433511     0.632571  Biso 1.000000     H
    H   1.0     0.524590     0.048455     0.980567  Biso 1.000000     H
    H   1.0     0.363511     0.229601     0.063389  Biso 1.000000     H
    H   1.0     0.314335     0.015136     0.122285  Biso 1.000000     H
    H   1.0     0.233563     0.258383     0.061532  Biso 1.000000     H
    H   1.0     0.645761     0.712677     0.170187  Biso 1.000000     H
    H   1.0     0.677416     0.570958     0.380515  Biso 1.000000     H
    H   1.0     0.463192     0.631121     0.329448  Biso 1.000000     H
    H   1.0     0.433448     0.632469     0.459818  Biso 1.000000     H
    C   1.0     0.547696     0.445597     0.943496  Biso 1.000000     C
    C   1.0     0.550947     0.524538     0.921348  Biso 1.000000     C
    C   1.0     0.512853     0.570552     0.970310  Biso 1.000000     C
    C   1.0     0.517717     0.644438     0.949159  Biso 1.000000     C
    C   1.0     0.559745     0.672090     0.879060  Biso 1.000000     C
    C   1.0     0.597858     0.626466     0.829397  Biso 1.000000     C
    C   1.0     0.593180     0.552349     0.851506  Biso 1.000000     C
    C   1.0     0.480440     0.692818     0.002420  Biso 1.000000     C
    C   1.0     0.642566     0.655648     0.755453  Biso 1.000000     C
    C   1.0     0.615393     0.725470     0.712743  Biso 1.000000     C
    C   1.0     0.690052     0.214371     0.001661  Biso 1.000000     C
    C   1.0     0.743677     0.176443     0.049605  Biso 1.000000     C
    C   1.0     0.722636     0.180393     0.123829  Biso 1.000000     C
    C   1.0     0.771840     0.141814     0.169467  Biso 1.000000     C
    C   1.0     0.841782     0.099927     0.140986  Biso 1.000000     C
    C   1.0     0.863742     0.095983     0.066583  Biso 1.000000     C
    C   1.0     0.813885     0.134727     0.021280  Biso 1.000000     C
    C   1.0     0.937659     0.051175     0.036961  Biso 1.000000     C
    C   1.0     0.980424     0.078107     0.967060  Biso 1.000000     C
    C   1.0     0.749832     0.144239     0.248692  Biso 1.000000     C
    C   1.0     0.943380     0.547624     0.445404  Biso 1.000000     C
    C   1.0     0.921301     0.550022     0.524646  Biso 1.000000     C
    C   1.0     0.970456     0.511414     0.570335  Biso 1.000000     C
    C   1.0     0.949378     0.515397     0.644551  Biso 1.000000     C
    C   1.0     0.879153     0.557115     0.672838  Biso 1.000000     C
    C   1.0     0.829325     0.595856     0.627502  Biso 1.000000     C
    C   1.0     0.851344     0.591914     0.553094  Biso 1.000000     C
    C   1.0     0.002961     0.477509     0.692547  Biso 1.000000     C
    C   1.0     0.755389     0.640660     0.657106  Biso 1.000000     C
    C   1.0     0.712638     0.613729     0.727045  Biso 1.000000     C
    C   1.0     0.001250     0.690987     0.213973  Biso 1.000000     C
    C   1.0     0.048981     0.744759     0.176479  Biso 1.000000     C
    C   1.0     0.123181     0.724137     0.180776  Biso 1.000000     C
    C   1.0     0.168706     0.773412     0.142403  Biso 1.000000     C
    C   1.0     0.140132     0.842993     0.100334  Biso 1.000000     C
    C   1.0     0.065702     0.864580     0.096165  Biso 1.000000     C
    C   1.0     0.020544     0.814633     0.134614  Biso 1.000000     C
    C   1.0     0.035945     0.938288     0.051478  Biso 1.000000     C
    C   1.0     0.965997     0.981139     0.078659  Biso 1.000000     C
    C   1.0     0.247967     0.751757     0.145074  Biso 1.000000     C
    C   1.0     0.445048     0.940272     0.548987  Biso 1.000000     C
    C   1.0     0.524322     0.918489     0.551653  Biso 1.000000     C
    C   1.0     0.569893     0.967724     0.513267  Biso 1.000000     C
    C   1.0     0.644090     0.947051     0.517575  Biso 1.000000     C
    C   1.0     0.672482     0.877168     0.559450  Biso 1.000000     C
    C   1.0     0.627298     0.827246     0.597886  Biso 1.000000     C
    C   1.0     0.552861     0.848884     0.593716  Biso 1.000000     C
    C   1.0     0.691889     0.000759     0.480148  Biso 1.000000     C
    C   1.0     0.657064     0.753538     0.642574  Biso 1.000000     C
    C   1.0     0.727022     0.710690     0.615395  Biso 1.000000     C
    C   1.0     0.212802    -0.000772     0.691625  Biso 1.000000     C
    C   1.0     0.175461     0.047506     0.744989  Biso 1.000000     C
    C   1.0     0.180248     0.121415     0.723888  Biso 1.000000     C
    C   1.0     0.142084     0.167395     0.772867  Biso 1.000000     C
    C   1.0     0.099821     0.139539     0.842668  Biso 1.000000     C
    C   1.0     0.095223     0.065399     0.864737  Biso 1.000000     C
    C   1.0     0.133426     0.019798     0.815063  Biso 1.000000     C
    C   1.0     0.050495     0.036187     0.938655  Biso 1.000000     C
    C   1.0     0.077648     0.966362     0.981353  Biso 1.000000     C
    C   1.0     0.145274     0.246349     0.750771  Biso 1.000000     C
    C   1.0     0.944547     0.047549     0.442772  Biso 1.000000     C
    C   1.0     0.023847     0.050098     0.420679  Biso 1.000000     C
    C   1.0     0.069570     0.011577     0.469796  Biso 1.000000     C
    C   1.0     0.143814     0.015671     0.448979  Biso 1.000000     C
    C   1.0     0.172099     0.057523     0.379067  Biso 1.000000     C
    C   1.0     0.126744     0.096161     0.329256  Biso 1.000000     C
    C   1.0     0.052272     0.092122     0.351019  Biso 1.000000     C
    C   1.0     0.191690     0.977932     0.502646  Biso 1.000000     C
    C   1.0     0.156411     0.140920     0.255564  Biso 1.000000     C
    C   1.0     0.226524     0.113891     0.212861  Biso 1.000000     C
    C   1.0     0.712772     0.190171     0.501641  Biso 1.000000     C
    C   1.0     0.675553     0.244097     0.549324  Biso 1.000000     C
    C   1.0     0.680051     0.223489     0.623338  Biso 1.000000     C
    C   1.0     0.642043     0.272987     0.668800  Biso 1.000000     C
    C   1.0     0.600187     0.342790     0.640299  Biso 1.000000     C
    C   1.0     0.595811     0.364331     0.566066  Biso 1.000000     C
    C   1.0     0.633900     0.314174     0.520974  Biso 1.000000     C
    C   1.0     0.551121     0.438148     0.536460  Biso 1.000000     C
    C   1.0     0.578287     0.480885     0.466671  Biso 1.000000     C
    C   1.0     0.644822     0.251394     0.747901  Biso 1.000000     C
    C   1.0     0.048014     0.440620     0.946319  Biso 1.000000     C
    C   1.0     0.050816     0.419004     0.025385  Biso 1.000000     C
    C   1.0     0.012805     0.468461     0.070895  Biso 1.000000     C
    C   1.0     0.017373     0.447817     0.144889  Biso 1.000000     C
    C   1.0     0.059007     0.377706     0.173190  Biso 1.000000     C
    C   1.0     0.097094     0.327592     0.128052  Biso 1.000000     C
    C   1.0     0.092712     0.349198     0.053822  Biso 1.000000     C
    C   1.0     0.980238     0.501683     0.192653  Biso 1.000000     C
    C   1.0     0.141770     0.253751     0.157622  Biso 1.000000     C
    C   1.0     0.114589     0.211016     0.227407  Biso 1.000000     C
    C   1.0     0.191140     0.499177     0.714445  Biso 1.000000     C
    C   1.0     0.244254     0.547620     0.676678  Biso 1.000000     C
    C   1.0     0.222854     0.621694     0.681138  Biso 1.000000     C
    C   1.0     0.271669     0.667689     0.642583  Biso 1.000000     C
    C   1.0     0.341590     0.639706     0.600336  Biso 1.000000     C
    C   1.0     0.363934     0.565451     0.595977  Biso 1.000000     C
    C   1.0     0.314428     0.519823     0.634560  Biso 1.000000     C
    C   1.0     0.437972     0.536185     0.551170  Biso 1.000000     C
    C   1.0     0.480876     0.466369     0.578179  Biso 1.000000     C
    C   1.0     0.249460     0.746776     0.645433  Biso 1.000000     C
    C   1.0     0.443708     0.945282     0.048472  Biso 1.000000     C
    C   1.0     0.421369     0.024332     0.051447  Biso 1.000000     C
    C   1.0     0.470141     0.070388     0.012995  Biso 1.000000     C
    C   1.0     0.448680     0.144424     0.017580  Biso 1.000000     C
    C   1.0     0.378461     0.172148     0.059664  Biso 1.000000     C
    C   1.0     0.328988     0.126467     0.098143  Biso 1.000000     C
    C   1.0     0.351403     0.052233     0.093687  Biso 1.000000     C
    C   1.0     0.501748     0.192916     0.979941  Biso 1.000000     C
    C   1.0     0.254916     0.155696     0.142930  Biso 1.000000     C
    C   1.0     0.212021     0.225522     0.115917  Biso 1.000000     C
    C   1.0     0.501323     0.714224     0.191417  Biso 1.000000     C
    C   1.0     0.549127     0.676391     0.245148  Biso 1.000000     C
    C   1.0     0.623391     0.680408     0.224373  Biso 1.000000     C
    C   1.0     0.669074     0.641828     0.273511  Biso 1.000000     C
    C   1.0     0.640614     0.599764     0.343127  Biso 1.000000     C
    C   1.0     0.566131     0.595776     0.364848  Biso 1.000000     C
    C   1.0     0.520799     0.634502     0.315025  Biso 1.000000     C
    C   1.0     0.536453     0.550980     0.438517  Biso 1.000000     C
    C   1.0     0.466354     0.578002     0.481241  Biso 1.000000     C
    C   1.0     0.748379     0.644322     0.251491  Biso 1.000000     C
    O   1.0     0.584191     0.403125     0.898967  Biso 1.000000     O
    O   1.0     0.509367     0.419136     0.007357  Biso 1.000000     O
    O   1.0     0.442761     0.664848     0.065267  Biso 1.000000     O
    O   1.0     0.489505     0.759090    -0.018396  Biso 1.000000     O
    O   1.0     0.685706     0.181944     0.275834  Biso 1.000000     O
    O   1.0     0.794709     0.107573     0.290747  Biso 1.000000     O
    O   1.0     0.710765     0.206671     0.934864  Biso 1.000000     O
    O   1.0     0.626957     0.251179     0.030632  Biso 1.000000     O
    O   1.0     0.898664     0.584456     0.403239  Biso 1.000000     O
    O   1.0     0.007471     0.509758     0.418365  Biso 1.000000     O
    O   1.0     0.066086     0.440702     0.663651  Biso 1.000000     O
    O   1.0    -0.017818     0.485271     0.759352  Biso 1.000000     O
    O   1.0     0.275089     0.688136     0.183262  Biso 1.000000     O
    O   1.0     0.290049     0.796523     0.108237  Biso 1.000000     O
    O   1.0     0.934582     0.711283     0.205673  Biso 1.000000     O
    O   1.0     0.030148     0.628254     0.251131  Biso 1.000000     O
    O   1.0     0.402921     0.895504     0.585579  Biso 1.000000     O
    O   1.0     0.417977     0.004051     0.511012  Biso 1.000000     O
    O   1.0     0.663228     0.063386     0.442657  Biso 1.000000     O
    O   1.0     0.758408    -0.019497     0.488866  Biso 1.000000     O
    O   1.0     0.183715     0.272830     0.686957  Biso 1.000000     O
    O   1.0     0.108676     0.288805     0.795287  Biso 1.000000     O
    O   1.0     0.203953     0.932891     0.712342  Biso 1.000000     O
    O   1.0     0.250338     0.027373     0.628767  Biso 1.000000     O
    O   1.0     0.902099     0.084241     0.398315  Biso 1.000000     O
    O   1.0     0.917797     0.009483     0.506668  Biso 1.000000     O
    O   1.0     0.162730     0.940988     0.565455  Biso 1.000000     O
    O   1.0     0.258497     0.985812     0.482235  Biso 1.000000     O
    O   1.0     0.682642     0.187530     0.775066  Biso 1.000000     O
    O   1.0     0.608351     0.296494     0.789824  Biso 1.000000     O
    O   1.0     0.704121     0.210373     0.435217  Biso 1.000000     O
    O   1.0     0.750061     0.127406     0.530367  Biso 1.000000     O
    O   1.0     0.084768     0.395702     0.904273  Biso 1.000000     O
    O   1.0     0.009896     0.504364     0.919276  Biso 1.000000     O
    O   1.0     0.943112     0.564580     0.163992  Biso 1.000000     O
    O   1.0     0.988864     0.481311     0.259097  Biso 1.000000     O
    O   1.0     0.185463     0.773631     0.683540  Biso 1.000000     O
    O   1.0     0.294123     0.788994     0.608728  Biso 1.000000     O
    O   1.0     0.212179     0.432718     0.705703  Biso 1.000000     O
    O   1.0     0.128215     0.527275     0.752166  Biso 1.000000     O
    O   1.0     0.399018     0.903026     0.084783  Biso 1.000000     O
    O   1.0     0.507917     0.918474     0.010652  Biso 1.000000     O
    O   1.0     0.564708     0.164882     0.942224  Biso 1.000000     O
    O   1.0     0.480679     0.259329     0.988795  Biso 1.000000     O
    O   1.0     0.775192     0.682439     0.187659  Biso 1.000000     O
    O   1.0     0.790768     0.607546     0.295991  Biso 1.000000     O
    O   1.0     0.434441     0.706576     0.211796  Biso 1.000000     O
    O   1.0     0.530431     0.751024     0.128587  Biso 1.000000     O
   Zn   1.0     0.548219     0.317498    -0.018552  Biso 1.000000    Zn
   Zn   1.0     0.643146     0.214756     0.876358  Biso 1.000000    Zn
   Zn   1.0    -0.018694     0.549248     0.316927  Biso 1.000000    Zn
   Zn   1.0     0.876894     0.643161     0.213500  Biso 1.000000    Zn
   Zn   1.0     0.316455    -0.022450     0.550346  Biso 1.000000    Zn
   Zn   1.0     0.211724     0.875049     0.644353  Biso 1.000000    Zn
   Zn   1.0     0.816020     0.048658     0.481027  Biso 1.000000    Zn
   Zn   1.0     0.712238     0.142429     0.377177  Biso 1.000000    Zn
   Zn   1.0     0.049644     0.477440     0.817883  Biso 1.000000    Zn
   Zn   1.0     0.144850     0.374432     0.712894  Biso 1.000000    Zn
   Zn   1.0     0.481879     0.817042     0.049402  Biso 1.000000    Zn
   Zn   1.0     0.376572     0.714832     0.143592  Biso 1.000000    Zn
