#======================================================================

# CRYSTAL DATA

#----------------------------------------------------------------------

data_VESTA_phase_1


_pd_phase_name                         MOF
_cell_length_a                         23.04700
_cell_length_b                         15.56200
_cell_length_c                         16.21900
_cell_angle_alpha                      89.97800
_cell_angle_beta                       89.97400
_cell_angle_gamma                      90.07400
_symmetry_space_group_name_H-M         "P 1"
_symmetry_Int_Tables_number            1

loop_
_symmetry_equiv_pos_as_xyz
   "x, y, z"

loop_
   _atom_site_label
   _atom_site_occupancy
   _atom_site_fract_x
   _atom_site_fract_y
   _atom_site_fract_z
   _atom_site_adp_type
   _atom_site_B_iso_or_equiv
   _atom_site_type_symbol
    H   1.0     0.194568     0.758050     0.742797  Biso 1.000000     H
    H   1.0     0.694568     0.758128     0.742885  Biso 1.000000     H
    H   1.0     0.231019     0.048254     0.534619  Biso 1.000000     H
    H   1.0     0.730407     0.046041     0.533541  Biso 1.000000     H
    H   1.0     0.115934     0.026691     0.701837  Biso 1.000000     H
    H   1.0     0.615515     0.026515     0.701995  Biso 1.000000     H
    H   1.0     0.435692     0.172138     0.745125  Biso 1.000000     H
    H   1.0     0.935935     0.171981     0.745198  Biso 1.000000     H
    H   1.0     0.164423     0.964296     0.811524  Biso 1.000000     H
    H   1.0     0.664049     0.964413     0.811677  Biso 1.000000     H
    H   1.0     0.090039     0.962972     0.833533  Biso 1.000000     H
    H   1.0     0.589692     0.962690     0.833835  Biso 1.000000     H
    H   1.0     0.197511     0.930994     0.676772  Biso 1.000000     H
    H   1.0     0.697060     0.931403     0.676669  Biso 1.000000     H
    H   1.0     0.146840     0.851754     0.643092  Biso 1.000000     H
    H   1.0     0.646618     0.851445     0.643836  Biso 1.000000     H
    H   1.0     0.043789     0.868154     0.681893  Biso 1.000000     H
    H   1.0     0.543325     0.867947     0.682431  Biso 1.000000     H
    H   1.0     0.046241     0.960495     0.614743  Biso 1.000000     H
    H   1.0     0.545765     0.960054     0.615024  Biso 1.000000     H
    H   1.0     0.489779     0.877027     0.815216  Biso 1.000000     H
    H   1.0     0.990182     0.876791     0.814702  Biso 1.000000     H
    H   1.0     0.418457     0.956055     0.901716  Biso 1.000000     H
    H   1.0     0.918802     0.955562     0.901348  Biso 1.000000     H
    H   1.0     0.395047     0.111569     0.863609  Biso 1.000000     H
    H   1.0     0.895329     0.111139     0.863589  Biso 1.000000     H
    H   1.0     0.001944     0.100849     0.657178  Biso 1.000000     H
    H   1.0     0.501618     0.100700     0.657167  Biso 1.000000     H
    H   1.0     0.055428     0.241855     0.242853  Biso 1.000000     H
    H   1.0     0.555479     0.241864     0.242862  Biso 1.000000     H
    H   1.0     0.019668     0.953775     0.033467  Biso 1.000000     H
    H   1.0     0.519706     0.953428     0.033623  Biso 1.000000     H
    H   1.0     0.134530     0.973512     0.201980  Biso 1.000000     H
    H   1.0     0.634519     0.973420     0.202131  Biso 1.000000     H
    H   1.0     0.314330     0.828278     0.244868  Biso 1.000000     H
    H   1.0     0.814251     0.827995     0.244912  Biso 1.000000     H
    H   1.0     0.085882     0.035585     0.311707  Biso 1.000000     H
    H   1.0     0.585875     0.035623     0.311823  Biso 1.000000     H
    H   1.0     0.160239     0.037238     0.333748  Biso 1.000000     H
    H   1.0     0.660243     0.037254     0.333832  Biso 1.000000     H
    H   1.0     0.052789     0.067953     0.176713  Biso 1.000000     H
    H   1.0     0.552775     0.067880     0.176786  Biso 1.000000     H
    H   1.0     0.102925     0.148388     0.143875  Biso 1.000000     H
    H   1.0     0.602917     0.148272     0.143885  Biso 1.000000     H
    H   1.0     0.206463     0.132326     0.182282  Biso 1.000000     H
    H   1.0     0.706490     0.132188     0.182359  Biso 1.000000     H
    H   1.0     0.204158     0.040279     0.114862  Biso 1.000000     H
    H   1.0     0.704136     0.040141     0.114939  Biso 1.000000     H
    H   1.0     0.260227     0.123357     0.314859  Biso 1.000000     H
    H   1.0     0.760249     0.123119     0.314964  Biso 1.000000     H
    H   1.0     0.331714     0.044393     0.401144  Biso 1.000000     H
    H   1.0     0.831635     0.044050     0.401292  Biso 1.000000     H
    H   1.0     0.355137     0.888951     0.363096  Biso 1.000000     H
    H   1.0     0.854984     0.888531     0.363225  Biso 1.000000     H
    H   1.0     0.248286     0.899627     0.157073  Biso 1.000000     H
    H   1.0     0.748278     0.899490     0.157062  Biso 1.000000     H
    H   1.0     0.305383     0.257790     0.757087  Biso 1.000000     H
    H   1.0     0.805406     0.257745     0.757170  Biso 1.000000     H
    H   1.0     0.268930     0.548144     0.965509  Biso 1.000000     H
    H   1.0     0.768973     0.548110     0.965527  Biso 1.000000     H
    H   1.0     0.384252     0.526696     0.798066  Biso 1.000000     H
    H   1.0     0.884158     0.526649     0.798142  Biso 1.000000     H
    H   1.0     0.064207     0.672054     0.754951  Biso 1.000000     H
    H   1.0     0.564326     0.671716     0.755114  Biso 1.000000     H
    H   1.0     0.335866     0.464293     0.688167  Biso 1.000000     H
    H   1.0     0.835829     0.464204     0.688271  Biso 1.000000     H
    H   1.0     0.410314     0.462939     0.666634  Biso 1.000000     H
    H   1.0     0.910251     0.462917     0.666640  Biso 1.000000     H
    H   1.0     0.302209     0.432042     0.822936  Biso 1.000000     H
    H   1.0     0.802289     0.431756     0.823068  Biso 1.000000     H
    H   1.0     0.352191     0.352019     0.856627  Biso 1.000000     H
    H   1.0     0.852408     0.351925     0.856765  Biso 1.000000     H
    H   1.0     0.455799     0.367945     0.818695  Biso 1.000000     H
    H   1.0     0.955930     0.368095     0.818618  Biso 1.000000     H
    H   1.0     0.453429     0.460327     0.885719  Biso 1.000000     H
    H   1.0     0.953523     0.460467     0.885660  Biso 1.000000     H
    H   1.0     0.009945     0.376512     0.686239  Biso 1.000000     H
    H   1.0     0.509960     0.376231     0.686416  Biso 1.000000     H
    H   1.0     0.081527     0.455240     0.599557  Biso 1.000000     H
    H   1.0     0.581725     0.454777     0.599892  Biso 1.000000     H
    H   1.0     0.104989     0.610968     0.636872  Biso 1.000000     H
    H   1.0     0.605227     0.610489     0.637165  Biso 1.000000     H
    H   1.0     0.498067     0.600754     0.843068  Biso 1.000000     H
    H   1.0     0.998049     0.600973     0.842974  Biso 1.000000     H
    H   1.0     0.444575     0.742273     0.256887  Biso 1.000000     H
    H   1.0     0.944617     0.742190     0.257072  Biso 1.000000     H
    H   1.0     0.480739     0.454688     0.466695  Biso 1.000000     H
    H   1.0     0.981123     0.451830     0.465406  Biso 1.000000     H
    H   1.0     0.365556     0.473657     0.298153  Biso 1.000000     H
    H   1.0     0.865889     0.473359     0.298278  Biso 1.000000     H
    H   1.0     0.185491     0.328169     0.254614  Biso 1.000000     H
    H   1.0     0.685734     0.328207     0.254867  Biso 1.000000     H
    H   1.0     0.413919     0.535759     0.188213  Biso 1.000000     H
    H   1.0     0.914264     0.535828     0.188349  Biso 1.000000     H
    H   1.0     0.339521     0.537293     0.166434  Biso 1.000000     H
    H   1.0     0.839842     0.537022     0.166756  Biso 1.000000     H
    H   1.0     0.447228     0.568691     0.323098  Biso 1.000000     H
    H   1.0     0.947734     0.568545     0.323044  Biso 1.000000     H
    H   1.0     0.397005     0.648720     0.356077  Biso 1.000000     H
    H   1.0     0.897481     0.648133     0.356862  Biso 1.000000     H
    H   1.0     0.293585     0.632101     0.318244  Biso 1.000000     H
    H   1.0     0.794106     0.631883     0.318820  Biso 1.000000     H
    H   1.0     0.295896     0.539732     0.385319  Biso 1.000000     H
    H   1.0     0.796465     0.539359     0.385742  Biso 1.000000     H
    H   1.0     0.239738     0.623750     0.185809  Biso 1.000000     H
    H   1.0     0.740210     0.623776     0.186399  Biso 1.000000     H
    H   1.0     0.168137     0.545132     0.099242  Biso 1.000000     H
    H   1.0     0.668572     0.545332     0.099707  Biso 1.000000     H
    H   1.0     0.144609     0.389437     0.136628  Biso 1.000000     H
    H   1.0     0.644984     0.389610     0.136891  Biso 1.000000     H
    H   1.0     0.251661     0.399156     0.342517  Biso 1.000000     H
    H   1.0     0.751927     0.399008     0.342898  Biso 1.000000     H
    C   1.0     0.123297     0.933502     0.794469  Biso 1.000000     C
    C   1.0     0.622981     0.933411     0.794693  Biso 1.000000     C
    C   1.0     0.154835     0.921024     0.648491  Biso 1.000000     C
    C   1.0     0.654335     0.920819     0.648745  Biso 1.000000     C
    C   1.0     0.048878     0.938136     0.678767  Biso 1.000000     C
    C   1.0     0.548435     0.937917     0.679116  Biso 1.000000     C
    C   1.0     0.004324     0.983064     0.731301  Biso 1.000000     C
    C   1.0     0.503933     0.983056     0.731534  Biso 1.000000     C
    C   1.0     0.478411     0.943160     0.800082  Biso 1.000000     C
    C   1.0     0.978798     0.942958     0.799720  Biso 1.000000     C
    C   1.0     0.438345     0.987262     0.848682  Biso 1.000000     C
    C   1.0     0.938703     0.986917     0.848403  Biso 1.000000     C
    C   1.0     0.424189     0.071063     0.827959  Biso 1.000000     C
    C   1.0     0.924504     0.070752     0.827868  Biso 1.000000     C
    C   1.0     0.486438     0.066309     0.711885  Biso 1.000000     C
    C   1.0     0.986795     0.066338     0.711832  Biso 1.000000     C
    C   1.0     0.244084     0.733792     0.544663  Biso 1.000000     C
    C   1.0     0.743941     0.733431     0.544749  Biso 1.000000     C
    C   1.0     0.268189     0.766069     0.461188  Biso 1.000000     C
    C   1.0     0.768122     0.764743     0.461023  Biso 1.000000     C
    C   1.0     0.127716     0.828546     0.250549  Biso 1.000000     C
    C   1.0     0.627821     0.828371     0.250745  Biso 1.000000     C
    C   1.0     0.129888     0.729985     0.242478  Biso 1.000000     C
    C   1.0     0.629914     0.729819     0.242487  Biso 1.000000     C
    C   1.0     0.238326     0.700404     0.988616  Biso 1.000000     C
    C   1.0     0.738342     0.700381     0.988653  Biso 1.000000     C
    C   1.0     0.260371     0.790996     0.011471  Biso 1.000000     C
    C   1.0     0.760385     0.790969     0.011517  Biso 1.000000     C
    C   1.0     0.126957     0.066570     0.294654  Biso 1.000000     C
    C   1.0     0.626956     0.066572     0.294736  Biso 1.000000     C
    C   1.0     0.095479     0.078945     0.148757  Biso 1.000000     C
    C   1.0     0.595464     0.078833     0.148814  Biso 1.000000     C
    C   1.0     0.201465     0.062344     0.178960  Biso 1.000000     C
    C   1.0     0.701458     0.062209     0.179038  Biso 1.000000     C
    C   1.0     0.246035     0.017293     0.231315  Biso 1.000000     C
    C   1.0     0.746013     0.017100     0.231386  Biso 1.000000     C
    C   1.0     0.271618     0.057241     0.299729  Biso 1.000000     C
    C   1.0     0.771595     0.056986     0.299829  Biso 1.000000     C
    C   1.0     0.311765     0.013184     0.348209  Biso 1.000000     C
    C   1.0     0.811692     0.012854     0.348343  Biso 1.000000     C
    C   1.0     0.325955     0.929409     0.327487  Biso 1.000000     C
    C   1.0     0.825822     0.929053     0.327632  Biso 1.000000     C
    C   1.0     0.263527     0.934048     0.211692  Biso 1.000000     C
    C   1.0     0.763490     0.933848     0.211737  Biso 1.000000     C
    C   1.0     0.505961     0.266628     0.044791  Biso 1.000000     C
    C   1.0     0.000000     0.266632     0.044787  Biso 1.000000     C
    C   1.0     0.481845     0.235253     0.961072  Biso 1.000000     C
    C   1.0     0.981861     0.235261     0.961069  Biso 1.000000     C
    C   1.0     0.122360     0.171752     0.750665  Biso 1.000000     C
    C   1.0     0.622271     0.171552     0.750745  Biso 1.000000     C
    C   1.0     0.120187     0.270297     0.742343  Biso 1.000000     C
    C   1.0     0.620144     0.270106     0.742456  Biso 1.000000     C
    C   1.0     0.011766     0.299570     0.488778  Biso 1.000000     C
    C   1.0     0.511988     0.300701     0.489096  Biso 1.000000     C
    C   1.0     0.489940     0.209796     0.511248  Biso 1.000000     C
    C   1.0     0.989788     0.209032     0.512025  Biso 1.000000     C
    C   1.0     0.376876     0.433480     0.705506  Biso 1.000000     C
    C   1.0     0.876859     0.433431     0.705570  Biso 1.000000     C
    C   1.0     0.344762     0.421408     0.851327  Biso 1.000000     C
    C   1.0     0.844868     0.421284     0.851434  Biso 1.000000     C
    C   1.0     0.450921     0.437942     0.821707  Biso 1.000000     C
    C   1.0     0.950990     0.438084     0.821649  Biso 1.000000     C
    C   1.0     0.495743     0.482732     0.769363  Biso 1.000000     C
    C   1.0     0.995729     0.482974     0.769229  Biso 1.000000     C
    C   1.0     0.021365     0.442742     0.701040  Biso 1.000000     C
    C   1.0     0.521426     0.442441     0.701227  Biso 1.000000     C
    C   1.0     0.061552     0.486676     0.652332  Biso 1.000000     C
    C   1.0     0.561712     0.486277     0.652607  Biso 1.000000     C
    C   1.0     0.075742     0.570599     0.672644  Biso 1.000000     C
    C   1.0     0.575940     0.570186     0.672921  Biso 1.000000     C
    C   1.0     0.013260     0.566338     0.788492  Biso 1.000000     C
    C   1.0     0.513326     0.566075     0.788629  Biso 1.000000     C
    C   1.0     0.255892     0.233795     0.955298  Biso 1.000000     C
    C   1.0     0.755906     0.233752     0.955356  Biso 1.000000     C
    C   1.0     0.231829     0.266069     0.038772  Biso 1.000000     C
    C   1.0     0.731848     0.266057     0.038819  Biso 1.000000     C
    C   1.0     0.372531     0.328641     0.249386  Biso 1.000000     C
    C   1.0     0.872571     0.328428     0.249505  Biso 1.000000     C
    C   1.0     0.370207     0.230075     0.257558  Biso 1.000000     C
    C   1.0     0.870244     0.229855     0.257594  Biso 1.000000     C
    C   1.0     0.261876     0.200486     0.511211  Biso 1.000000     C
    C   1.0     0.761732     0.199528     0.511118  Biso 1.000000     C
    C   1.0     0.239943     0.290968     0.487981  Biso 1.000000     C
    C   1.0     0.739926     0.290406     0.488844  Biso 1.000000     C
    C   1.0     0.372905     0.566676     0.205381  Biso 1.000000     C
    C   1.0     0.873209     0.566560     0.205627  Biso 1.000000     C
    C   1.0     0.404566     0.579336     0.351193  Biso 1.000000     C
    C   1.0     0.905140     0.578809     0.351480  Biso 1.000000     C
    C   1.0     0.298559     0.562118     0.321299  Biso 1.000000     C
    C   1.0     0.799050     0.561889     0.321762  Biso 1.000000     C
    C   1.0     0.253915     0.517239     0.268829  Biso 1.000000     C
    C   1.0     0.754322     0.517150     0.269299  Biso 1.000000     C
    C   1.0     0.228304     0.557520     0.200640  Biso 1.000000     C
    C   1.0     0.728729     0.557541     0.201148  Biso 1.000000     C
    C   1.0     0.188089     0.513661     0.152013  Biso 1.000000     C
    C   1.0     0.688498     0.513787     0.152457  Biso 1.000000     C
    C   1.0     0.173869     0.429739     0.172361  Biso 1.000000     C
    C   1.0     0.674240     0.429850     0.172698  Biso 1.000000     C
    C   1.0     0.236388     0.433849     0.288079  Biso 1.000000     C
    C   1.0     0.736719     0.433772     0.288474  Biso 1.000000     C
    C   1.0    -0.005934     0.766647     0.455346  Biso 1.000000     C
    C   1.0     0.494117     0.766161     0.455222  Biso 1.000000     C
    C   1.0     0.018141     0.735223     0.539054  Biso 1.000000     C
    C   1.0     0.518101     0.733886     0.538718  Biso 1.000000     C
    C   1.0     0.377734     0.671759     0.749243  Biso 1.000000     C
    C   1.0     0.877087     0.671557     0.749415  Biso 1.000000     C
    C   1.0     0.379886     0.770318     0.757488  Biso 1.000000     C
    C   1.0     0.879743     0.770117     0.757423  Biso 1.000000     C
    C   1.0     0.488454     0.800191     0.011170  Biso 1.000000     C
    C   1.0     0.988464     0.800315     0.011091  Biso 1.000000     C
    C   1.0     0.010287     0.709489     0.988768  Biso 1.000000     C
    C   1.0     0.510293     0.709393     0.988782  Biso 1.000000     C
    N   1.0     0.110647     0.958227     0.706338  Biso 1.000000     N
    N   1.0     0.610205     0.958066     0.706590  Biso 1.000000     N
    N   1.0     0.447861     0.107550     0.760164  Biso 1.000000     N
    N   1.0     0.948177     0.107427     0.760165  Biso 1.000000     N
    N   1.0     0.139733     0.041961     0.206541  Biso 1.000000     N
    N   1.0     0.639717     0.041886     0.206634  Biso 1.000000     N
    N   1.0     0.302184     0.892852     0.259857  Biso 1.000000     N
    N   1.0     0.802092     0.892575     0.259931  Biso 1.000000     N
    N   1.0     0.389315     0.458226     0.793696  Biso 1.000000     N
    N   1.0     0.889339     0.458220     0.793739  Biso 1.000000     N
    N   1.0     0.051969     0.607405     0.740134  Biso 1.000000     N
    N   1.0     0.552116     0.607061     0.740339  Biso 1.000000     N
    N   1.0     0.360268     0.542054     0.293562  Biso 1.000000     N
    N   1.0     0.860716     0.541800     0.293831  Biso 1.000000     N
    N   1.0     0.197659     0.392850     0.239792  Biso 1.000000     N
    N   1.0     0.697968     0.392877     0.240130  Biso 1.000000     N
    O   1.0     0.082406     0.769930     0.770765  Biso 1.000000     O
    O   1.0     0.582406     0.769758     0.770832  Biso 1.000000     O
    O   1.0     0.125111     0.818540     0.912880  Biso 1.000000     O
    O   1.0     0.625085     0.818457     0.912992  Biso 1.000000     O
    O   1.0     0.192473     0.789038     0.795117  Biso 1.000000     O
    O   1.0     0.692442     0.789136     0.795193  Biso 1.000000     O
    O   1.0     0.119915     0.048963     0.541259  Biso 1.000000     O
    O   1.0     0.619514     0.048605     0.541244  Biso 1.000000     O
    O   1.0     0.134327     0.894988     0.488708  Biso 1.000000     O
    O   1.0     0.632391     0.893921     0.489491  Biso 1.000000     O
    O   1.0     0.221984     0.984824     0.524690  Biso 1.000000     O
    O   1.0     0.720937     0.982746     0.523984  Biso 1.000000     O
    O   1.0     0.189586     0.722102     0.548394  Biso 1.000000     O
    O   1.0     0.689406     0.722151     0.548588  Biso 1.000000     O
    O   1.0     0.280470     0.722546     0.602017  Biso 1.000000     O
    O   1.0     0.780324     0.722454     0.602144  Biso 1.000000     O
    O   1.0     0.322304     0.781079     0.458304  Biso 1.000000     O
    O   1.0     0.822422     0.778054     0.457736  Biso 1.000000     O
    O   1.0     0.232357     0.774551     0.402704  Biso 1.000000     O
    O   1.0     0.732241     0.774201     0.402754  Biso 1.000000     O
    O   1.0     0.131978     0.862181     0.320648  Biso 1.000000     O
    O   1.0     0.632089     0.861823     0.320925  Biso 1.000000     O
    O   1.0     0.123194     0.870777     0.183357  Biso 1.000000     O
    O   1.0     0.623327     0.870710     0.183602  Biso 1.000000     O
    O   1.0     0.130146     0.700851     0.169937  Biso 1.000000     O
    O   1.0     0.630158     0.700782     0.169915  Biso 1.000000     O
    O   1.0     0.132492     0.688536     0.310152  Biso 1.000000     O
    O   1.0     0.632486     0.688240     0.310088  Biso 1.000000     O
    O   1.0     0.275779     0.650816     0.954644  Biso 1.000000     O
    O   1.0     0.775804     0.650787     0.954717  Biso 1.000000     O
    O   1.0     0.187088     0.681305     0.007172  Biso 1.000000     O
    O   1.0     0.687105     0.681278     0.007214  Biso 1.000000     O
    O   1.0     0.224700     0.837078     0.051951  Biso 1.000000     O
    O   1.0     0.724706     0.837064     0.051966  Biso 1.000000     O
    O   1.0     0.311234     0.810870     0.990678  Biso 1.000000     O
    O   1.0     0.811244     0.810858     0.990715  Biso 1.000000     O
    O   1.0     0.167592     0.230206     0.270735  Biso 1.000000     O
    O   1.0     0.667621     0.230210     0.270749  Biso 1.000000     O
    O   1.0     0.124887     0.181460     0.412932  Biso 1.000000     O
    O   1.0     0.624938     0.181553     0.412974  Biso 1.000000     O
    O   1.0     0.057545     0.210877     0.295197  Biso 1.000000     O
    O   1.0     0.557575     0.210894     0.295213  Biso 1.000000     O
    O   1.0     0.130552     0.951443     0.041091  Biso 1.000000     O
    O   1.0     0.630582     0.951293     0.041221  Biso 1.000000     O
    O   1.0     0.117570     0.106222     0.989529  Biso 1.000000     O
    O   1.0     0.617532     0.105994     0.989550  Biso 1.000000     O
    O   1.0     0.029078     0.017099     0.023923  Biso 1.000000     O
    O   1.0     0.529082     0.016762     0.023985  Biso 1.000000     O
    O   1.0     0.060502     0.277883     0.048584  Biso 1.000000     O
    O   1.0     0.560504     0.277831     0.048606  Biso 1.000000     O
    O   1.0     0.469546     0.277684     0.102178  Biso 1.000000     O
    O   1.0     0.969581     0.277631     0.102198  Biso 1.000000     O
    O   1.0     0.427552     0.221909     0.957821  Biso 1.000000     O
    O   1.0     0.927571     0.221897     0.957824  Biso 1.000000     O
    O   1.0     0.017748     0.225824     0.902781  Biso 1.000000     O
    O   1.0     0.517758     0.225783     0.902798  Biso 1.000000     O
    O   1.0     0.117978     0.138366     0.820897  Biso 1.000000     O
    O   1.0     0.617962     0.138121     0.820962  Biso 1.000000     O
    O   1.0     0.127032     0.129408     0.683589  Biso 1.000000     O
    O   1.0     0.626825     0.129227     0.683625  Biso 1.000000     O
    O   1.0     0.119966     0.299332     0.669737  Biso 1.000000     O
    O   1.0     0.619898     0.299138     0.669864  Biso 1.000000     O
    O   1.0     0.117543     0.311882     0.809901  Biso 1.000000     O
    O   1.0     0.617557     0.311695     0.810025  Biso 1.000000     O
    O   1.0     0.474527     0.350917     0.455958  Biso 1.000000     O
    O   1.0     0.974319     0.349025     0.454678  Biso 1.000000     O
    O   1.0     0.062997     0.318785     0.507152  Biso 1.000000     O
    O   1.0     0.563363     0.319215     0.507375  Biso 1.000000     O
    O   1.0     0.025610     0.162946     0.552175  Biso 1.000000     O
    O   1.0     0.525464     0.163411     0.551684  Biso 1.000000     O
    O   1.0     0.439225     0.189787     0.489950  Biso 1.000000     O
    O   1.0     0.938810     0.189169     0.491935  Biso 1.000000     O
    O   1.0     0.417572     0.269943     0.729223  Biso 1.000000     O
    O   1.0     0.917602     0.269890     0.729269  Biso 1.000000     O
    O   1.0     0.374938     0.318584     0.587100  Biso 1.000000     O
    O   1.0     0.874918     0.318592     0.587181  Biso 1.000000     O
    O   1.0     0.307519     0.288996     0.704862  Biso 1.000000     O
    O   1.0     0.807531     0.288944     0.704940  Biso 1.000000     O
    O   1.0     0.380058     0.549019     0.958738  Biso 1.000000     O
    O   1.0     0.880111     0.548977     0.958832  Biso 1.000000     O
    O   1.0     0.365553     0.394911     0.011040  Biso 1.000000     O
    O   1.0     0.865573     0.394884     0.011164  Biso 1.000000     O
    O   1.0     0.277922     0.484736     0.975410  Biso 1.000000     O
    O   1.0     0.777963     0.484700     0.975408  Biso 1.000000     O
    O   1.0     0.310365     0.222078     0.951574  Biso 1.000000     O
    O   1.0     0.810380     0.222077     0.951603  Biso 1.000000     O
    O   1.0     0.219500     0.222652     0.897905  Biso 1.000000     O
    O   1.0     0.719499     0.222548     0.897994  Biso 1.000000     O
    O   1.0     0.177747     0.281093     0.041652  Biso 1.000000     O
    O   1.0     0.677763     0.281068     0.041697  Biso 1.000000     O
    O   1.0     0.267667     0.274483     0.097277  Biso 1.000000     O
    O   1.0     0.767692     0.274504     0.097314  Biso 1.000000     O
    O   1.0     0.368312     0.362211     0.179228  Biso 1.000000     O
    O   1.0     0.868537     0.362047     0.179343  Biso 1.000000     O
    O   1.0     0.377153     0.370905     0.316515  Biso 1.000000     O
    O   1.0     0.877018     0.370632     0.316681  Biso 1.000000     O
    O   1.0     0.369926     0.200995     0.330137  Biso 1.000000     O
    O   1.0     0.869987     0.200670     0.330148  Biso 1.000000     O
    O   1.0     0.367477     0.188570     0.189947  Biso 1.000000     O
    O   1.0     0.867493     0.188436     0.189947  Biso 1.000000     O
    O   1.0     0.224311     0.150983     0.545309  Biso 1.000000     O
    O   1.0     0.724151     0.149512     0.544482  Biso 1.000000     O
    O   1.0     0.313088     0.181315     0.492844  Biso 1.000000     O
    O   1.0     0.813016     0.180733     0.492708  Biso 1.000000     O
    O   1.0     0.275802     0.337063     0.447685  Biso 1.000000     O
    O   1.0     0.775629     0.336622     0.448369  Biso 1.000000     O
    O   1.0     0.189016     0.310816     0.508241  Biso 1.000000     O
    O   1.0     0.689241     0.310518     0.510069  Biso 1.000000     O
    O   1.0     0.332432     0.730271     0.229172  Biso 1.000000     O
    O   1.0     0.832437     0.730091     0.229257  Biso 1.000000     O
    O   1.0     0.375065     0.681536     0.087002  Biso 1.000000     O
    O   1.0     0.875103     0.681452     0.087139  Biso 1.000000     O
    O   1.0     0.442462     0.710964     0.204746  Biso 1.000000     O
    O   1.0     0.942504     0.711039     0.204841  Biso 1.000000     O
    O   1.0     0.369800     0.451498     0.458792  Biso 1.000000     O
    O   1.0     0.869988     0.450949     0.458854  Biso 1.000000     O
    O   1.0     0.382473     0.606240     0.510428  Biso 1.000000     O
    O   1.0     0.884547     0.604951     0.511264  Biso 1.000000     O
    O   1.0     0.471183     0.517923     0.475989  Biso 1.000000     O
    O   1.0     0.972127     0.515208     0.475348  Biso 1.000000     O
    O   1.0     0.439643     0.777903     0.451488  Biso 1.000000     O
    O   1.0     0.939580     0.777909     0.451495  Biso 1.000000     O
    O   1.0     0.030523     0.777678     0.397960  Biso 1.000000     O
    O   1.0     0.530543     0.777352     0.397841  Biso 1.000000     O
    O   1.0     0.072405     0.721836     0.542300  Biso 1.000000     O
    O   1.0     0.572187     0.718896     0.541640  Biso 1.000000     O
    O   1.0     0.482206     0.725483     0.597200  Biso 1.000000     O
    O   1.0     0.982222     0.725722     0.597321  Biso 1.000000     O
    O   1.0     0.381845     0.638335     0.679036  Biso 1.000000     O
    O   1.0     0.880529     0.637862     0.679248  Biso 1.000000     O
    O   1.0     0.373331     0.629419     0.816407  Biso 1.000000     O
    O   1.0     0.872983     0.629376     0.816688  Biso 1.000000     O
    O   1.0     0.380136     0.799386     0.830050  Biso 1.000000     O
    O   1.0     0.880201     0.799314     0.829944  Biso 1.000000     O
    O   1.0     0.382507     0.811888     0.689875  Biso 1.000000     O
    O   1.0     0.882520     0.811487     0.689710  Biso 1.000000     O
    O   1.0     0.025990     0.850309     0.044475  Biso 1.000000     O
    O   1.0     0.526002     0.850098     0.044684  Biso 1.000000     O
    O   1.0     0.437198     0.819075     0.992688  Biso 1.000000     O
    O   1.0     0.937177     0.819109     0.992682  Biso 1.000000     O
    O   1.0     0.474603     0.663229     0.948306  Biso 1.000000     O
    O   1.0     0.974618     0.663277     0.948337  Biso 1.000000     O
    O   1.0     0.060996     0.689438     0.009952  Biso 1.000000     O
    O   1.0     0.561002     0.689341     0.009958  Biso 1.000000     O
    P   1.0     0.127320     0.818231     0.820097  Biso 1.000000     P
    P   1.0     0.627254     0.818145     0.820212  Biso 1.000000     P
    P   1.0     0.155292     0.967828     0.543255  Biso 1.000000     P
    P   1.0     0.654218     0.966861     0.543282  Biso 1.000000     P
    P   1.0     0.122722     0.181818     0.320161  Biso 1.000000     P
    P   1.0     0.622750     0.181847     0.320198  Biso 1.000000     P
    P   1.0     0.095768     0.033108     0.043240  Biso 1.000000     P
    P   1.0     0.595750     0.032914     0.043318  Biso 1.000000     P
    P   1.0     0.372719     0.318228     0.679879  Biso 1.000000     P
    P   1.0     0.872733     0.318174     0.679961  Biso 1.000000     P
    P   1.0     0.344567     0.467874     0.956667  Biso 1.000000     P
    P   1.0     0.844620     0.467836     0.956746  Biso 1.000000     P
    P   1.0     0.377231     0.681914     0.179779  Biso 1.000000     P
    P   1.0     0.877307     0.681814     0.179921  Biso 1.000000     P
    P   1.0     0.404446     0.533411     0.456697  Biso 1.000000     P
    P   1.0     0.905463     0.532101     0.456761  Biso 1.000000     P
    Y   1.0     0.131888     0.768219     0.433668  Biso 1.000000     Y
    Y   1.0     0.631702     0.767401     0.433720  Biso 1.000000     Y
    Y   1.0     0.125629     0.799590     0.050750  Biso 1.000000     Y
    Y   1.0     0.625644     0.799488     0.050856  Biso 1.000000     Y
    Y   1.0     0.118285     0.232704     0.933649  Biso 1.000000     Y
    Y   1.0     0.618301     0.232542     0.933732  Biso 1.000000     Y
    Y   1.0     0.124602     0.200780     0.550689  Biso 1.000000     Y
    Y   1.0     0.624508     0.200489     0.550809  Biso 1.000000     Y
    Y   1.0     0.368102     0.268250     0.066367  Biso 1.000000     Y
    Y   1.0     0.868142     0.268205     0.066400  Biso 1.000000     Y
    Y   1.0     0.374767     0.299784     0.449220  Biso 1.000000     Y
    Y   1.0     0.874552     0.299097     0.449431  Biso 1.000000     Y
    Y   1.0     0.381717     0.732715     0.566266  Biso 1.000000     Y
    Y   1.0     0.881730     0.731689     0.566282  Biso 1.000000     Y
    Y   1.0     0.375618     0.700807     0.949174  Biso 1.000000     Y
    Y   1.0     0.875633     0.700813     0.949285  Biso 1.000000     Y
