#======================================================================

# CRYSTAL DATA

#----------------------------------------------------------------------

data_VESTA_phase_1


_pd_phase_name                         MOF
_cell_length_a                         20.92400
_cell_length_b                         15.15700
_cell_length_c                         18.97000
_cell_angle_alpha                      89.92700
_cell_angle_beta                       89.97900
_cell_angle_gamma                      90.03300
_symmetry_space_group_name_H-M         "P 1"
_symmetry_Int_Tables_number            1

loop_
_symmetry_equiv_pos_as_xyz
   "x, y, z"

loop_
   _atom_site_label
   _atom_site_occupancy
   _atom_site_fract_x
   _atom_site_fract_y
   _atom_site_fract_z
   _atom_site_adp_type
   _atom_site_B_iso_or_equiv
   _atom_site_type_symbol
    H   1.0     0.130087     0.165930     0.786541  Biso 1.000000     H
    H   1.0     0.630260     0.164459     0.783903  Biso 1.000000     H
    H   1.0     0.019782    -0.063912     0.773086  Biso 1.000000     H
    H   1.0     0.517021    -0.066140     0.772603  Biso 1.000000     H
    H   1.0    -0.047579     0.017614     0.757920  Biso 1.000000     H
    H   1.0     0.450403     0.017853     0.763587  Biso 1.000000     H
    H   1.0     0.380382     0.532510     0.717694  Biso 1.000000     H
    H   1.0     0.880140     0.532031     0.717358  Biso 1.000000     H
    H   1.0     0.267016     0.762483     0.728219  Biso 1.000000     H
    H   1.0     0.766582     0.762302     0.728141  Biso 1.000000     H
    H   1.0     0.200579     0.678341     0.738605  Biso 1.000000     H
    H   1.0     0.700315     0.677785     0.737870  Biso 1.000000     H
    H   1.0     0.234307     0.600056     0.536457  Biso 1.000000     H
    H   1.0     0.734464     0.599421     0.536550  Biso 1.000000     H
    H   1.0     0.214929     0.671917     0.418861  Biso 1.000000     H
    H   1.0     0.715172     0.670824     0.418797  Biso 1.000000     H
    H   1.0     0.020617     0.581136     0.422635  Biso 1.000000     H
    H   1.0     0.520513     0.581509     0.423264  Biso 1.000000     H
    H   1.0     0.040098     0.508939     0.540060  Biso 1.000000     H
    H   1.0     0.539909     0.509775     0.540882  Biso 1.000000     H
    H   1.0     0.290213     0.187220     0.959983  Biso 1.000000     H
    H   1.0     0.789580     0.186449     0.962092  Biso 1.000000     H
    H   1.0     0.484395     0.096312     0.963504  Biso 1.000000     H
    H   1.0     0.983991     0.096510     0.966174  Biso 1.000000     H
    H   1.0     0.464968     0.024440     0.081139  Biso 1.000000     H
    H   1.0     0.964532     0.024733     0.083760  Biso 1.000000     H
    H   1.0     0.270682     0.115027     0.077472  Biso 1.000000     H
    H   1.0     0.770031     0.114403     0.079569  Biso 1.000000     H
    H   1.0     0.366914     0.664740     0.215892  Biso 1.000000     H
    H   1.0     0.867349     0.665416     0.215162  Biso 1.000000     H
    H   1.0     0.480381     0.433973     0.227889  Biso 1.000000     H
    H   1.0     0.980820     0.434189     0.226634  Biso 1.000000     H
    H   1.0     0.546797     0.518159     0.237941  Biso 1.000000     H
    H   1.0     0.000000     0.518845     0.233444  Biso 1.000000     H
    H   1.0     0.117105     0.000000     0.284350  Biso 1.000000     H
    H   1.0     0.617160     0.000000     0.286854  Biso 1.000000     H
    H   1.0     0.230846     0.262147     0.274499  Biso 1.000000     H
    H   1.0     0.728927     0.259709     0.275905  Biso 1.000000     H
    H   1.0     0.297369     0.177511     0.269684  Biso 1.000000     H
    H   1.0     0.796356     0.176884     0.267393  Biso 1.000000     H
    H   1.0     0.262755     0.099570     0.463782  Biso 1.000000     H
    H   1.0     0.763441     0.100693     0.465570  Biso 1.000000     H
    H   1.0     0.282175     0.171477     0.581196  Biso 1.000000     H
    H   1.0     0.782950     0.173562     0.582551  Biso 1.000000     H
    H   1.0     0.476648     0.081688     0.577214  Biso 1.000000     H
    H   1.0     0.977197     0.082813     0.579307  Biso 1.000000     H
    H   1.0     0.457120     0.009446     0.459957  Biso 1.000000     H
    H   1.0     0.957645     0.009898     0.462335  Biso 1.000000     H
    H   1.0     0.207252     0.687113     0.040296  Biso 1.000000     H
    H   1.0     0.707111     0.687635     0.040023  Biso 1.000000     H
    H   1.0     0.012916     0.596574     0.036210  Biso 1.000000     H
    H   1.0     0.513384     0.594553     0.037683  Biso 1.000000     H
    H   1.0     0.032586     0.524748     0.918785  Biso 1.000000     H
    H   1.0     0.532979     0.521744     0.920606  Biso 1.000000     H
    H   1.0     0.227035     0.614904     0.923060  Biso 1.000000     H
    H   1.0     0.726743     0.614766     0.922967  Biso 1.000000     H
    C   1.0     0.189809     0.283119     0.760927  Biso 1.000000     C
    C   1.0     0.689816     0.282557     0.760485  Biso 1.000000     C
    C   1.0     0.126655     0.234910     0.769161  Biso 1.000000     C
    C   1.0     0.626732     0.233780     0.767408  Biso 1.000000     C
    C   1.0     0.003815     0.005768     0.768443  Biso 1.000000     C
    C   1.0     0.502191     0.004124     0.769192  Biso 1.000000     C
    C   1.0     0.439966     0.414490     0.740830  Biso 1.000000     C
    C   1.0     0.939777     0.414587     0.742070  Biso 1.000000     C
    C   1.0     0.376845     0.462966     0.733586  Biso 1.000000     C
    C   1.0     0.876650     0.462892     0.734357  Biso 1.000000     C
    C   1.0     0.252245     0.692184     0.731779  Biso 1.000000     C
    C   1.0     0.751992     0.691920     0.731555  Biso 1.000000     C
    C   1.0     0.148746     0.508066     0.615523  Biso 1.000000     C
    C   1.0     0.648814     0.508527     0.616155  Biso 1.000000     C
    C   1.0     0.138283     0.550234     0.544898  Biso 1.000000     C
    C   1.0     0.638264     0.550364     0.545403  Biso 1.000000     C
    C   1.0     0.187750     0.596198     0.510981  Biso 1.000000     C
    C   1.0     0.687848     0.595759     0.511191  Biso 1.000000     C
    C   1.0     0.177077     0.635916     0.445866  Biso 1.000000     C
    C   1.0     0.677217     0.635248     0.445981  Biso 1.000000     C
    C   1.0     0.116735     0.630413     0.413896  Biso 1.000000     C
    C   1.0     0.616808     0.630033     0.414124  Biso 1.000000     C
    C   1.0     0.067312     0.584366     0.447830  Biso 1.000000     C
    C   1.0     0.567271     0.584530     0.448339  Biso 1.000000     C
    C   1.0     0.078006     0.544519     0.512813  Biso 1.000000     C
    C   1.0     0.577922     0.544910     0.513439  Biso 1.000000     C
    C   1.0     0.392220     0.174351     0.655707  Biso 1.000000     C
    C   1.0     0.892620     0.176359     0.657422  Biso 1.000000     C
    C   1.0     0.142678     0.522133     0.844430  Biso 1.000000     C
    C   1.0     0.642506     0.520226     0.845486  Biso 1.000000     C
    C   1.0     0.328098     0.151688     0.987230  Biso 1.000000     C
    C   1.0     0.827546     0.151168     0.989420  Biso 1.000000     C
    C   1.0     0.388380     0.146028     0.955120  Biso 1.000000     C
    C   1.0     0.887893     0.145803     0.957397  Biso 1.000000     C
    C   1.0     0.437833     0.100123     0.989004  Biso 1.000000     C
    C   1.0     0.937358     0.100171     0.991530  Biso 1.000000     C
    C   1.0     0.427132     0.060387     0.054143  Biso 1.000000     C
    C   1.0     0.926630     0.060466     0.056692  Biso 1.000000     C
    C   1.0     0.398872     0.188261     0.884517  Biso 1.000000     C
    C   1.0     0.898637     0.187986     0.886739  Biso 1.000000     C
    C   1.0     0.317374     0.111825     0.052238  Biso 1.000000     C
    C   1.0     0.816805     0.111357     0.054494  Biso 1.000000     C
    C   1.0     0.130854     0.565939     0.914051  Biso 1.000000     C
    C   1.0     0.630889     0.564337     0.914990  Biso 1.000000     C
    C   1.0     0.307485     0.782714     0.239529  Biso 1.000000     C
    C   1.0     0.807658     0.782457     0.240686  Biso 1.000000     C
    C   1.0     0.370519     0.733989     0.232443  Biso 1.000000     C
    C   1.0     0.870787     0.734246     0.232824  Biso 1.000000     C
    C   1.0     0.495103     0.504273     0.231507  Biso 1.000000     C
    C   1.0     0.995397     0.504600     0.229539  Biso 1.000000     C
    C   1.0     0.057561     0.913507     0.260751  Biso 1.000000     C
    C   1.0     0.557468     0.913060     0.261086  Biso 1.000000     C
    C   1.0     0.120631     0.962215     0.267760  Biso 1.000000     C
    C   1.0     0.620606     0.961185     0.269459  Biso 1.000000     C
    C   1.0     0.245440     0.191744     0.271897  Biso 1.000000     C
    C   1.0     0.744418     0.189716     0.272626  Biso 1.000000     C
    C   1.0     0.348388     0.007996     0.384654  Biso 1.000000     C
    C   1.0     0.848714     0.008061     0.387017  Biso 1.000000     C
    C   1.0     0.358860     0.050238     0.455203  Biso 1.000000     C
    C   1.0     0.859443     0.050938     0.457287  Biso 1.000000     C
    C   1.0     0.309372     0.095948     0.489150  Biso 1.000000     C
    C   1.0     0.810036     0.097100     0.490986  Biso 1.000000     C
    C   1.0     0.320063     0.135696     0.554187  Biso 1.000000     C
    C   1.0     0.820785     0.137407     0.555779  Biso 1.000000     C
    C   1.0     0.380455     0.130494     0.586084  Biso 1.000000     C
    C   1.0     0.881104     0.132133     0.587853  Biso 1.000000     C
    C   1.0     0.429902     0.084706     0.552114  Biso 1.000000     C
    C   1.0     0.930479     0.085906     0.554137  Biso 1.000000     C
    C   1.0     0.419188     0.044826     0.487212  Biso 1.000000     C
    C   1.0     0.919737     0.045572     0.489390  Biso 1.000000     C
    C   1.0     0.104999     0.674276     0.344218  Biso 1.000000     C
    C   1.0     0.605178     0.673755     0.344337  Biso 1.000000     C
    C   1.0     0.355029     0.022041     0.155849  Biso 1.000000     C
    C   1.0     0.854536     0.021749     0.158421  Biso 1.000000     C
    C   1.0     0.169381     0.651660     0.012983  Biso 1.000000     C
    C   1.0     0.669353     0.651456     0.013130  Biso 1.000000     C
    C   1.0     0.108993     0.646121     0.044905  Biso 1.000000     C
    C   1.0     0.609158     0.645412     0.045419  Biso 1.000000     C
    C   1.0     0.059574     0.600312     0.010901  Biso 1.000000     C
    C   1.0     0.559876     0.598625     0.012042  Biso 1.000000     C
    C   1.0     0.070407     0.560601     0.945864  Biso 1.000000     C
    C   1.0     0.570659     0.558408     0.947222  Biso 1.000000     C
    C   1.0     0.098404     0.688369     0.115423  Biso 1.000000     C
    C   1.0     0.598524     0.688086     0.115712  Biso 1.000000     C
    C   1.0     0.180239     0.611803     0.948084  Biso 1.000000     C
    C   1.0     0.680131     0.611209     0.948372  Biso 1.000000     C
    C   1.0     0.366789     0.065858     0.086150  Biso 1.000000     C
    C   1.0     0.866233     0.065646     0.088638  Biso 1.000000     C
    N   1.0     0.073870     0.274207     0.756707  Biso 1.000000     N
    N   1.0     0.573906     0.273013     0.755000  Biso 1.000000     N
    N   1.0     0.323985     0.423289     0.745087  Biso 1.000000     N
    N   1.0     0.823834     0.423443     0.746576  Biso 1.000000     N
    N   1.0     0.423374     0.773156     0.244909  Biso 1.000000     N
    N   1.0     0.923548     0.773373     0.245838  Biso 1.000000     N
    N   1.0     0.173439     0.923007     0.255277  Biso 1.000000     N
    N   1.0     0.673388     0.921890     0.257067  Biso 1.000000     N
    O   1.0     0.185744     0.360638     0.734569  Biso 1.000000     O
    O   1.0     0.685770     0.360256     0.734493  Biso 1.000000     O
    O   1.0     0.239749     0.243975     0.780513  Biso 1.000000     O
    O   1.0     0.739647     0.243672     0.780747  Biso 1.000000     O
    O   1.0     0.435761     0.335976     0.765213  Biso 1.000000     O
    O   1.0     0.935685     0.337099     0.768564  Biso 1.000000     O
    O   1.0     0.490003     0.454428     0.722396  Biso 1.000000     O
    O   1.0     0.989664     0.453476     0.721908  Biso 1.000000     O
    O   1.0     0.202688     0.522774     0.645187  Biso 1.000000     O
    O   1.0     0.703053     0.522687     0.645300  Biso 1.000000     O
    O   1.0     0.102764     0.462512     0.639709  Biso 1.000000     O
    O   1.0     0.602733     0.463759     0.641003  Biso 1.000000     O
    O   1.0     0.346436     0.218320     0.681903  Biso 1.000000     O
    O   1.0     0.847083     0.221938     0.682379  Biso 1.000000     O
    O   1.0     0.447719     0.162969     0.682731  Biso 1.000000     O
    O   1.0     0.947510     0.163799     0.685626  Biso 1.000000     O
    O   1.0     0.198218     0.533487     0.817404  Biso 1.000000     O
    O   1.0     0.697365     0.533345     0.817293  Biso 1.000000     O
    O   1.0     0.096891     0.478215     0.818197  Biso 1.000000     O
    O   1.0     0.597122     0.474323     0.820563  Biso 1.000000     O
    O   1.0     0.353004     0.233933     0.860405  Biso 1.000000     O
    O   1.0     0.852592     0.232724     0.861824  Biso 1.000000     O
    O   1.0     0.452786     0.173462     0.854774  Biso 1.000000     O
    O   1.0     0.952965     0.174166     0.857692  Biso 1.000000     O
    O   1.0     0.041661     0.066463     0.774490  Biso 1.000000     O
    O   1.0     0.541575     0.063353     0.771405  Biso 1.000000     O
    O   1.0     0.291572     0.633022     0.728458  Biso 1.000000     O
    O   1.0     0.791520     0.632977     0.728619  Biso 1.000000     O
    O   1.0     0.311636     0.860413     0.265402  Biso 1.000000     O
    O   1.0     0.811629     0.859175     0.268488  Biso 1.000000     O
    O   1.0     0.257556     0.743795     0.219618  Biso 1.000000     O
    O   1.0     0.757904     0.744248     0.219468  Biso 1.000000     O
    O   1.0     0.061633     0.835942     0.234627  Biso 1.000000     O
    O   1.0     0.561557     0.835641     0.234689  Biso 1.000000     O
    O   1.0     0.007734     0.952297     0.281050  Biso 1.000000     O
    O   1.0     0.507514     0.952185     0.280615  Biso 1.000000     O
    O   1.0     0.294471     0.022754     0.354896  Biso 1.000000     O
    O   1.0     0.794533     0.022043     0.357663  Biso 1.000000     O
    O   1.0     0.394285     0.962404     0.360569  Biso 1.000000     O
    O   1.0     0.894634     0.962554     0.362788  Biso 1.000000     O
    O   1.0     0.150809     0.718363     0.318027  Biso 1.000000     O
    O   1.0     0.651213     0.717200     0.317930  Biso 1.000000     O
    O   1.0     0.049534     0.662831     0.317154  Biso 1.000000     O
    O   1.0     0.549571     0.662892     0.317443  Biso 1.000000     O
    O   1.0     0.299555     0.033483     0.182926  Biso 1.000000     O
    O   1.0     0.799061     0.032790     0.185603  Biso 1.000000     O
    O   1.0     0.400800     0.977953     0.182016  Biso 1.000000     O
    O   1.0     0.900428     0.977933     0.184645  Biso 1.000000     O
    O   1.0     0.144307     0.733974     0.139525  Biso 1.000000     O
    O   1.0     0.644374     0.733917     0.139694  Biso 1.000000     O
    O   1.0     0.044429     0.673648     0.145130  Biso 1.000000     O
    O   1.0     0.544525     0.673441     0.145357  Biso 1.000000     O
    O   1.0     0.455698     0.563386     0.228647  Biso 1.000000     O
    O   1.0     0.955693     0.563422     0.228568  Biso 1.000000     O
    O   1.0     0.205678     0.132930     0.271438  Biso 1.000000     O
    O   1.0     0.705555     0.129820     0.274599  Biso 1.000000     O
   Zn   1.0     0.083158     0.403649     0.731577  Biso 1.000000    Zn
   Zn   1.0     0.583106     0.403294     0.731991  Biso 1.000000    Zn
   Zn   1.0     0.239242     0.476989     0.734508  Biso 1.000000    Zn
   Zn   1.0     0.739145     0.476765     0.734742  Biso 1.000000    Zn
   Zn   1.0     0.333177     0.293032     0.768532  Biso 1.000000    Zn
   Zn   1.0     0.833082     0.293342     0.770862  Biso 1.000000    Zn
   Zn   1.0     0.489154     0.219361     0.765441  Biso 1.000000    Zn
   Zn   1.0     0.989004     0.221404     0.768374  Biso 1.000000    Zn
   Zn   1.0     0.414115     0.903275     0.268704  Biso 1.000000    Zn
   Zn   1.0     0.914184     0.903073     0.271308  Biso 1.000000    Zn
   Zn   1.0     0.258127     0.976828     0.265549  Biso 1.000000    Zn
   Zn   1.0     0.758220     0.974774     0.268505  Biso 1.000000    Zn
   Zn   1.0     0.164142     0.793000     0.231306  Biso 1.000000    Zn
   Zn   1.0     0.664130     0.792660     0.231473  Biso 1.000000    Zn
   Zn   1.0     0.008130     0.719619     0.234503  Biso 1.000000    Zn
   Zn   1.0     0.508064     0.719277     0.234578  Biso 1.000000    Zn
