#======================================================================

# CRYSTAL DATA

#----------------------------------------------------------------------

data_VESTA_phase_1


_pd_phase_name                         MOF
_cell_length_a                         20.27100
_cell_length_b                         23.13200
_cell_length_c                         14.80100
_cell_angle_alpha                      91.18900
_cell_angle_beta                       89.98500
_cell_angle_gamma                      89.99200
_symmetry_space_group_name_H-M         "P 1"
_symmetry_Int_Tables_number            1

loop_
_symmetry_equiv_pos_as_xyz
   "x, y, z"

loop_
   _atom_site_label
   _atom_site_occupancy
   _atom_site_fract_x
   _atom_site_fract_y
   _atom_site_fract_z
   _atom_site_adp_type
   _atom_site_B_iso_or_equiv
   _atom_site_type_symbol
    H   1.0     0.378901     0.428401     0.373005  Biso 1.000000     H
    H   1.0     0.378916     0.928340     0.373511  Biso 1.000000     H
    H   1.0     0.878896     0.428396     0.372969  Biso 1.000000     H
    H   1.0     0.878705     0.928690     0.373275  Biso 1.000000     H
    H   1.0     0.025797     0.237265     0.271618  Biso 1.000000     H
    H   1.0     0.025646     0.737151     0.271811  Biso 1.000000     H
    H   1.0     0.525794     0.237274     0.271619  Biso 1.000000     H
    H   1.0     0.525919     0.737287     0.271598  Biso 1.000000     H
    H   1.0     0.305375     0.281254     0.043161  Biso 1.000000     H
    H   1.0     0.305233     0.781260     0.043411  Biso 1.000000     H
    H   1.0     0.805359     0.281255     0.043145  Biso 1.000000     H
    H   1.0     0.805428     0.781375     0.043187  Biso 1.000000     H
    H   1.0     0.102382     0.491145     0.234341  Biso 1.000000     H
    H   1.0     0.102355     0.991385     0.235020  Biso 1.000000     H
    H   1.0     0.602383     0.491161     0.234338  Biso 1.000000     H
    H   1.0     0.602348     0.991122     0.234337  Biso 1.000000     H
    H   1.0     0.081284     0.345112     0.921081  Biso 1.000000     H
    H   1.0     0.081174     0.844979     0.921452  Biso 1.000000     H
    H   1.0     0.581343     0.345113     0.921129  Biso 1.000000     H
    H   1.0     0.581317     0.845066     0.921382  Biso 1.000000     H
    H   1.0     0.354509     0.499803     0.009664  Biso 1.000000     H
    H   1.0     0.354564     0.000000     0.011857  Biso 1.000000     H
    H   1.0     0.854509     0.499806     0.009624  Biso 1.000000     H
    H   1.0     0.854595     0.999647     0.009654  Biso 1.000000     H
    H   1.0     0.128939     0.321593     0.127114  Biso 1.000000     H
    H   1.0     0.128823     0.821720     0.128878  Biso 1.000000     H
    H   1.0     0.628938     0.321572     0.127076  Biso 1.000000     H
    H   1.0     0.628927     0.821584     0.127057  Biso 1.000000     H
    H   1.0     0.275007     0.012775     0.229750  Biso 1.000000     H
    H   1.0     0.275817     0.512789     0.228640  Biso 1.000000     H
    H   1.0     0.775765     0.012738     0.228491  Biso 1.000000     H
    H   1.0     0.775793     0.512748     0.228470  Biso 1.000000     H
    H   1.0     0.055357     0.468854     0.456783  Biso 1.000000     H
    H   1.0     0.055111     0.968915     0.458199  Biso 1.000000     H
    H   1.0     0.555363     0.468847     0.456819  Biso 1.000000     H
    H   1.0     0.555353     0.968833     0.456852  Biso 1.000000     H
    H   1.0     0.352376     0.258824     0.265660  Biso 1.000000     H
    H   1.0     0.352517     0.759142     0.266239  Biso 1.000000     H
    H   1.0     0.852376     0.258800     0.265610  Biso 1.000000     H
    H   1.0     0.852361     0.758779     0.265617  Biso 1.000000     H
    H   1.0     0.331370     0.404796     0.578958  Biso 1.000000     H
    H   1.0     0.331104     0.904950     0.581107  Biso 1.000000     H
    H   1.0     0.831397     0.404854     0.578768  Biso 1.000000     H
    H   1.0     0.831377     0.904833     0.578826  Biso 1.000000     H
    H   1.0     0.104532     0.250213     0.490566  Biso 1.000000     H
    H   1.0     0.104951     0.748382     0.490205  Biso 1.000000     H
    H   1.0     0.604528     0.250214     0.490476  Biso 1.000000     H
    H   1.0     0.604530     0.750202     0.490496  Biso 1.000000     H
    H   1.0     0.121289     0.071705     0.627722  Biso 1.000000     H
    H   1.0     0.121234     0.571585     0.627677  Biso 1.000000     H
    H   1.0     0.621132     0.071610     0.627101  Biso 1.000000     H
    H   1.0     0.621137     0.571629     0.627119  Biso 1.000000     H
    H   1.0     0.474279     0.262704     0.728486  Biso 1.000000     H
    H   1.0     0.474252     0.762717     0.728664  Biso 1.000000     H
    H   1.0     0.974234     0.262742     0.728529  Biso 1.000000     H
    H   1.0     0.974197     0.762812     0.728716  Biso 1.000000     H
    H   1.0     0.194653     0.218808     0.957421  Biso 1.000000     H
    H   1.0     0.194662     0.718702     0.957413  Biso 1.000000     H
    H   1.0     0.694648     0.218748     0.956883  Biso 1.000000     H
    H   1.0     0.694636     0.718761     0.956880  Biso 1.000000     H
    H   1.0     0.397503     0.008889     0.765873  Biso 1.000000     H
    H   1.0     0.397645     0.508835     0.765714  Biso 1.000000     H
    H   1.0     0.897589     0.008830     0.765797  Biso 1.000000     H
    H   1.0     0.897618     0.508847     0.765699  Biso 1.000000     H
    H   1.0     0.418760     0.154885     0.079135  Biso 1.000000     H
    H   1.0     0.418596     0.654801     0.079115  Biso 1.000000     H
    H   1.0     0.918675     0.154799     0.079098  Biso 1.000000     H
    H   1.0     0.918721     0.654819     0.079192  Biso 1.000000     H
    H   1.0     0.145220    -0.000011     0.991071  Biso 1.000000     H
    H   1.0     0.145217     0.499879     0.990777  Biso 1.000000     H
    H   1.0     0.645444     0.000150     0.990421  Biso 1.000000     H
    H   1.0     0.645465     0.500141     0.990412  Biso 1.000000     H
    H   1.0     0.371367     0.178626     0.873226  Biso 1.000000     H
    H   1.0     0.371337     0.678600     0.873234  Biso 1.000000     H
    H   1.0     0.871055     0.178418     0.872986  Biso 1.000000     H
    H   1.0     0.871047     0.678416     0.872988  Biso 1.000000     H
    H   1.0     0.224152     0.487169     0.771780  Biso 1.000000     H
    H   1.0     0.224221     0.987335     0.772144  Biso 1.000000     H
    H   1.0     0.724199     0.487232     0.771575  Biso 1.000000     H
    H   1.0     0.724198     0.987222     0.771585  Biso 1.000000     H
    H   1.0     0.444678     0.031292     0.543242  Biso 1.000000     H
    H   1.0     0.444633     0.531181     0.543225  Biso 1.000000     H
    H   1.0     0.944666     0.031130     0.543221  Biso 1.000000     H
    H   1.0     0.944666     0.531127     0.543210  Biso 1.000000     H
    H   1.0     0.147585     0.241422     0.734889  Biso 1.000000     H
    H   1.0     0.147436     0.741173     0.735021  Biso 1.000000     H
    H   1.0     0.647625     0.241190     0.734415  Biso 1.000000     H
    H   1.0     0.647630     0.741181     0.734411  Biso 1.000000     H
    H   1.0     0.168513     0.094962     0.422147  Biso 1.000000     H
    H   1.0     0.168880     0.594856     0.421578  Biso 1.000000     H
    H   1.0     0.668613     0.095105     0.421341  Biso 1.000000     H
    H   1.0     0.668609     0.595100     0.421325  Biso 1.000000     H
    H   1.0     0.395469     0.249756     0.509822  Biso 1.000000     H
    H   1.0     0.395468     0.749798     0.510212  Biso 1.000000     H
    H   1.0     0.895506     0.249778     0.509640  Biso 1.000000     H
    H   1.0     0.895529     0.749728     0.509555  Biso 1.000000     H
    C   1.0     0.419611     0.412201     0.329956  Biso 1.000000     C
    C   1.0     0.419570     0.912170     0.330326  Biso 1.000000     C
    C   1.0     0.919609     0.412194     0.329928  Biso 1.000000     C
    C   1.0     0.919389     0.912211     0.330436  Biso 1.000000     C
    C   1.0     0.012375     0.259628     0.208917  Biso 1.000000     C
    C   1.0     0.012339     0.759642     0.209182  Biso 1.000000     C
    C   1.0     0.512381     0.259636     0.208913  Biso 1.000000     C
    C   1.0     0.512392     0.759642     0.208932  Biso 1.000000     C
    C   1.0     0.359053     0.288274     0.050889  Biso 1.000000     C
    C   1.0     0.358902     0.788409     0.051018  Biso 1.000000     C
    C   1.0     0.859037     0.288265     0.050878  Biso 1.000000     C
    C   1.0     0.859114     0.788334     0.050959  Biso 1.000000     C
    C   1.0     0.066675     0.476395     0.182174  Biso 1.000000     C
    C   1.0     0.066448     0.976359     0.183270  Biso 1.000000     C
    C   1.0     0.566681     0.476408     0.182164  Biso 1.000000     C
    C   1.0     0.566617     0.976386     0.182192  Biso 1.000000     C
    C   1.0     0.050840     0.371756     0.967567  Biso 1.000000     C
    C   1.0     0.050873     0.871697     0.968013  Biso 1.000000     C
    C   1.0     0.550882     0.371758     0.967595  Biso 1.000000     C
    C   1.0     0.550837     0.871733     0.967791  Biso 1.000000     C
    C   1.0     0.363549     0.463780     0.055659  Biso 1.000000     C
    C   1.0     0.363493     0.964721     0.057330  Biso 1.000000     C
    C   1.0     0.863535     0.463773     0.055606  Biso 1.000000     C
    C   1.0     0.863646     0.963702     0.055795  Biso 1.000000     C
    C   1.0     0.169640     0.337792     0.170144  Biso 1.000000     C
    C   1.0     0.169452     0.837872     0.172084  Biso 1.000000     C
    C   1.0     0.669635     0.337781     0.170102  Biso 1.000000     C
    C   1.0     0.669622     0.837784     0.170097  Biso 1.000000     C
    C   1.0     0.262394     0.490385     0.291312  Biso 1.000000     C
    C   1.0     0.261743     0.990283     0.292407  Biso 1.000000     C
    C   1.0     0.762380     0.490370     0.291167  Biso 1.000000     C
    C   1.0     0.762358     0.990346     0.291194  Biso 1.000000     C
    C   1.0     0.109032     0.461750     0.449127  Biso 1.000000     C
    C   1.0     0.108750     0.961434     0.450956  Biso 1.000000     C
    C   1.0     0.609037     0.461757     0.449123  Biso 1.000000     C
    C   1.0     0.609026     0.961746     0.449141  Biso 1.000000     C
    C   1.0     0.316682     0.273582     0.317874  Biso 1.000000     C
    C   1.0     0.316878     0.773850     0.318555  Biso 1.000000     C
    C   1.0     0.816686     0.273565     0.317823  Biso 1.000000     C
    C   1.0     0.816663     0.773529     0.317828  Biso 1.000000     C
    C   1.0     0.300861     0.378178     0.532547  Biso 1.000000     C
    C   1.0     0.300775     0.878147     0.534745  Biso 1.000000     C
    C   1.0     0.800896     0.378216     0.532376  Biso 1.000000     C
    C   1.0     0.800888     0.878199     0.532413  Biso 1.000000     C
    C   1.0     0.113573     0.286212     0.444522  Biso 1.000000     C
    C   1.0     0.113551     0.784714     0.444672  Biso 1.000000     C
    C   1.0     0.613559     0.286226     0.444454  Biso 1.000000     C
    C   1.0     0.613554     0.786215     0.444474  Biso 1.000000     C
    C   1.0     0.080520     0.087860     0.670702  Biso 1.000000     C
    C   1.0     0.080487     0.587803     0.670645  Biso 1.000000     C
    C   1.0     0.580411     0.087797     0.670142  Biso 1.000000     C
    C   1.0     0.580410     0.587800     0.670165  Biso 1.000000     C
    C   1.0     0.487674     0.240348     0.791200  Biso 1.000000     C
    C   1.0     0.487649     0.740337     0.791353  Biso 1.000000     C
    C   1.0     0.987637     0.240364     0.791223  Biso 1.000000     C
    C   1.0     0.987619     0.740396     0.791369  Biso 1.000000     C
    C   1.0     0.140977     0.211791     0.949652  Biso 1.000000     C
    C   1.0     0.140979     0.711731     0.949630  Biso 1.000000     C
    C   1.0     0.640969     0.211726     0.949169  Biso 1.000000     C
    C   1.0     0.640958     0.711724     0.949187  Biso 1.000000     C
    C   1.0     0.433263     0.023594     0.818002  Biso 1.000000     C
    C   1.0     0.433344     0.523557     0.817910  Biso 1.000000     C
    C   1.0     0.933291     0.023575     0.817977  Biso 1.000000     C
    C   1.0     0.933300     0.523587     0.817907  Biso 1.000000     C
    C   1.0     0.449189     0.128258     0.032605  Biso 1.000000     C
    C   1.0     0.449091     0.628194     0.032640  Biso 1.000000     C
    C   1.0     0.949160     0.128176     0.032635  Biso 1.000000     C
    C   1.0     0.949156     0.628194     0.032667  Biso 1.000000     C
    C   1.0     0.136389     0.036069     0.945122  Biso 1.000000     C
    C   1.0     0.136404     0.536026     0.944952  Biso 1.000000     C
    C   1.0     0.636432     0.036201     0.944466  Biso 1.000000     C
    C   1.0     0.636451     0.536194     0.944463  Biso 1.000000     C
    C   1.0     0.330647     0.162255     0.830395  Biso 1.000000     C
    C   1.0     0.330622     0.662214     0.830405  Biso 1.000000     C
    C   1.0     0.830364     0.162203     0.829953  Biso 1.000000     C
    C   1.0     0.830360     0.662199     0.829949  Biso 1.000000     C
    C   1.0     0.237595     0.009775     0.709463  Biso 1.000000     C
    C   1.0     0.237581     0.509639     0.709163  Biso 1.000000     C
    C   1.0     0.737621     0.009619     0.708890  Biso 1.000000     C
    C   1.0     0.737623     0.509608     0.708880  Biso 1.000000     C
    C   1.0     0.390996     0.038293     0.551046  Biso 1.000000     C
    C   1.0     0.390957     0.538249     0.550972  Biso 1.000000     C
    C   1.0     0.890992     0.038231     0.550924  Biso 1.000000     C
    C   1.0     0.890992     0.538225     0.550915  Biso 1.000000     C
    C   1.0     0.183500     0.226461     0.683093  Biso 1.000000     C
    C   1.0     0.183371     0.726302     0.683195  Biso 1.000000     C
    C   1.0     0.683320     0.226422     0.682210  Biso 1.000000     C
    C   1.0     0.683324     0.726413     0.682205  Biso 1.000000     C
    C   1.0     0.199020     0.121715     0.468367  Biso 1.000000     C
    C   1.0     0.199209     0.621564     0.468083  Biso 1.000000     C
    C   1.0     0.699112     0.121755     0.467719  Biso 1.000000     C
    C   1.0     0.699110     0.621748     0.467703  Biso 1.000000     C
    C   1.0     0.386397     0.213785     0.555911  Biso 1.000000     C
    C   1.0     0.386387     0.713810     0.556264  Biso 1.000000     C
    C   1.0     0.886457     0.213763     0.555652  Biso 1.000000     C
    C   1.0     0.886471     0.713741     0.555615  Biso 1.000000     C
    O   1.0     0.405292     0.400382     0.247083  Biso 1.000000     O
    O   1.0     0.405153     0.900356     0.247482  Biso 1.000000     O
    O   1.0     0.905293     0.400377     0.247052  Biso 1.000000     O
    O   1.0     0.905184     0.900289     0.247601  Biso 1.000000     O
    O   1.0     0.475360     0.407489     0.366474  Biso 1.000000     O
    O   1.0     0.475380     0.907482     0.366659  Biso 1.000000     O
    O   1.0     0.975354     0.407477     0.366455  Biso 1.000000     O
    O   1.0     0.975033     0.907347     0.367256  Biso 1.000000     O
    O   1.0     0.010836     0.315219     0.214896  Biso 1.000000     O
    O   1.0     0.010929     0.815225     0.215406  Biso 1.000000     O
    O   1.0     0.510831     0.315227     0.214896  Biso 1.000000     O
    O   1.0     0.510753     0.815232     0.214947  Biso 1.000000     O
    O   1.0     0.499979     0.229732     0.139690  Biso 1.000000     O
    O   1.0     0.499962     0.729731     0.139726  Biso 1.000000     O
    O   1.0     0.999954     0.229723     0.139699  Biso 1.000000     O
    O   1.0     0.999951     0.729818     0.139838  Biso 1.000000     O
    O   1.0     0.375927     0.325336     0.112871  Biso 1.000000     O
    O   1.0     0.375678     0.825679     0.112774  Biso 1.000000     O
    O   1.0     0.875922     0.325324     0.112856  Biso 1.000000     O
    O   1.0     0.876025     0.825346     0.112989  Biso 1.000000     O
    O   1.0     0.397009     0.259803     0.000000  Biso 1.000000     O
    O   1.0     0.396903     0.759886     0.000000  Biso 1.000000     O
    O   1.0     0.896989     0.259782     0.000000  Biso 1.000000     O
    O   1.0     0.897030     0.759830     0.000000  Biso 1.000000     O
    O   1.0     0.043943     0.425024     0.191944  Biso 1.000000     O
    O   1.0     0.043329     0.925271     0.194367  Biso 1.000000     O
    O   1.0     0.543943     0.425039     0.191941  Biso 1.000000     O
    O   1.0     0.543812     0.925044     0.192035  Biso 1.000000     O
    O   1.0     0.053010     0.010218     0.120987  Biso 1.000000     O
    O   1.0     0.053029     0.510657     0.120606  Biso 1.000000     O
    O   1.0     0.553006     0.010652     0.120588  Biso 1.000000     O
    O   1.0     0.553045     0.510669     0.120591  Biso 1.000000     O
    O   1.0     0.013569     0.342854     0.021375  Biso 1.000000     O
    O   1.0     0.013831     0.842868     0.022217  Biso 1.000000     O
    O   1.0     0.513620     0.342848     0.021409  Biso 1.000000     O
    O   1.0     0.513612     0.842852     0.021686  Biso 1.000000     O
    O   1.0     0.055833     0.425448     0.964393  Biso 1.000000     O
    O   1.0     0.055814     0.925382     0.964505  Biso 1.000000     O
    O   1.0     0.555851     0.425450     0.964394  Biso 1.000000     O
    O   1.0     0.555766     0.925425     0.964451  Biso 1.000000     O
    O   1.0     0.424207     0.447818     0.062870  Biso 1.000000     O
    O   1.0     0.423939     0.947935     0.063124  Biso 1.000000     O
    O   1.0     0.924194     0.447821     0.062863  Biso 1.000000     O
    O   1.0     0.924295     0.947729     0.063009  Biso 1.000000     O
    O   1.0     0.314575     0.442879     0.095260  Biso 1.000000     O
    O   1.0     0.314562     0.944376     0.097783  Biso 1.000000     O
    O   1.0     0.814549     0.442852     0.095149  Biso 1.000000     O
    O   1.0     0.814676     0.942899     0.095541  Biso 1.000000     O
    O   1.0     0.155318     0.349608     0.253024  Biso 1.000000     O
    O   1.0     0.155036     0.849743     0.254837  Biso 1.000000     O
    O   1.0     0.655305     0.349607     0.252980  Biso 1.000000     O
    O   1.0     0.655282     0.849606     0.252974  Biso 1.000000     O
    O   1.0     0.225392     0.342498     0.133589  Biso 1.000000     O
    O   1.0     0.225304     0.842477     0.135735  Biso 1.000000     O
    O   1.0     0.725388     0.342492     0.133559  Biso 1.000000     O
    O   1.0     0.725381     0.842488     0.133567  Biso 1.000000     O
    O   1.0     0.260801     0.434799     0.285213  Biso 1.000000     O
    O   1.0     0.259790     0.934746     0.286089  Biso 1.000000     O
    O   1.0     0.760817     0.434780     0.285143  Biso 1.000000     O
    O   1.0     0.760770     0.934760     0.285173  Biso 1.000000     O
    O   1.0     0.249847     0.020189     0.361917  Biso 1.000000     O
    O   1.0     0.250030     0.520261     0.360601  Biso 1.000000     O
    O   1.0     0.750002     0.020276     0.360453  Biso 1.000000     O
    O   1.0     0.749998     0.520266     0.360422  Biso 1.000000     O
    O   1.0     0.125903     0.424641     0.387182  Biso 1.000000     O
    O   1.0     0.125438     0.923233     0.390545  Biso 1.000000     O
    O   1.0     0.625902     0.424659     0.387166  Biso 1.000000     O
    O   1.0     0.625885     0.924650     0.387176  Biso 1.000000     O
    O   1.0     0.146985     0.490171     0.499975  Biso 1.000000     O
    O   1.0     0.146876     0.990425     0.500677  Biso 1.000000     O
    O   1.0     0.646998     0.490187     0.499959  Biso 1.000000     O
    O   1.0     0.646994     0.990176     0.499966  Biso 1.000000     O
    O   1.0     0.293935     0.324959     0.308110  Biso 1.000000     O
    O   1.0     0.293893     0.825116     0.308802  Biso 1.000000     O
    O   1.0     0.793944     0.324940     0.308068  Biso 1.000000     O
    O   1.0     0.793890     0.824895     0.308070  Biso 1.000000     O
    O   1.0     0.303060     0.239325     0.379459  Biso 1.000000     O
    O   1.0     0.303526     0.739571     0.380260  Biso 1.000000     O
    O   1.0     0.803064     0.239307     0.379412  Biso 1.000000     O
    O   1.0     0.803063     0.739272     0.379425  Biso 1.000000     O
    O   1.0     0.263575     0.407124     0.478817  Biso 1.000000     O
    O   1.0     0.263818     0.906940     0.480319  Biso 1.000000     O
    O   1.0     0.763628     0.407138     0.478587  Biso 1.000000     O
    O   1.0     0.763614     0.907126     0.478635  Biso 1.000000     O
    O   1.0     0.305813     0.324480     0.535702  Biso 1.000000     O
    O   1.0     0.305539     0.824479     0.538676  Biso 1.000000     O
    O   1.0     0.805842     0.324522     0.535611  Biso 1.000000     O
    O   1.0     0.805847     0.824505     0.535616  Biso 1.000000     O
    O   1.0     0.174241     0.302140     0.437252  Biso 1.000000     O
    O   1.0     0.174041     0.801196     0.437518  Biso 1.000000     O
    O   1.0     0.674221     0.302163     0.437172  Biso 1.000000     O
    O   1.0     0.674212     0.802153     0.437178  Biso 1.000000     O
    O   1.0     0.064605     0.307131     0.404951  Biso 1.000000     O
    O   1.0     0.064309     0.805378     0.405391  Biso 1.000000     O
    O   1.0     0.564579     0.307145     0.404914  Biso 1.000000     O
    O   1.0     0.564566     0.807133     0.404945  Biso 1.000000     O
    O   1.0     0.094772     0.099679     0.753581  Biso 1.000000     O
    O   1.0     0.094749     0.599635     0.753514  Biso 1.000000     O
    O   1.0     0.594714     0.099603     0.753023  Biso 1.000000     O
    O   1.0     0.594704     0.599604     0.753047  Biso 1.000000     O
    O   1.0     0.024794     0.092522     0.634051  Biso 1.000000     O
    O   1.0     0.024771     0.592521     0.633980  Biso 1.000000     O
    O   1.0     0.524667     0.092508     0.633605  Biso 1.000000     O
    O   1.0     0.524665     0.592496     0.633618  Biso 1.000000     O
    O   1.0     0.489246     0.184760     0.785214  Biso 1.000000     O
    O   1.0     0.489273     0.684759     0.785302  Biso 1.000000     O
    O   1.0     0.989179     0.184777     0.785222  Biso 1.000000     O
    O   1.0     0.989186     0.684811     0.785261  Biso 1.000000     O
    O   1.0     0.000043     0.270260     0.860462  Biso 1.000000     O
    O   1.0     0.000022     0.770262     0.860648  Biso 1.000000     O
    O   1.0     0.500027     0.270265     0.860436  Biso 1.000000     O
    O   1.0     0.499957     0.770248     0.860627  Biso 1.000000     O
    O   1.0     0.124106     0.174591     0.887862  Biso 1.000000     O
    O   1.0     0.124093     0.674560     0.887795  Biso 1.000000     O
    O   1.0     0.624089     0.174654     0.887201  Biso 1.000000     O
    O   1.0     0.624080     0.674641     0.887235  Biso 1.000000     O
    O   1.0     0.102980     0.240384     0.000192  Biso 1.000000     O
    O   1.0     0.103006     0.740338     0.000180  Biso 1.000000     O
    O   1.0     0.603015     0.240202    -0.000022  Biso 1.000000     O
    O   1.0     0.603001     0.740194     0.000001  Biso 1.000000     O
    O   1.0     0.456103     0.074923     0.808165  Biso 1.000000     O
    O   1.0     0.456127     0.574916     0.808168  Biso 1.000000     O
    O   1.0     0.956009     0.074956     0.808222  Biso 1.000000     O
    O   1.0     0.956014     0.574970     0.808205  Biso 1.000000     O
    O   1.0     0.446938     0.489282     0.879479  Biso 1.000000     O
    O   1.0     0.446864     0.989297     0.879574  Biso 1.000000     O
    O   1.0     0.946940     0.489298     0.879442  Biso 1.000000     O
    O   1.0     0.946952     0.989279     0.879520  Biso 1.000000     O
    O   1.0     0.486451     0.157174     0.978814  Biso 1.000000     O
    O   1.0     0.486411     0.657144     0.978956  Biso 1.000000     O
    O   1.0     0.986464     0.157114     0.978909  Biso 1.000000     O
    O   1.0     0.986483     0.657125     0.978969  Biso 1.000000     O
    O   1.0     0.444194     0.074564     0.035702  Biso 1.000000     O
    O   1.0     0.444112     0.574497     0.035686  Biso 1.000000     O
    O   1.0     0.944185     0.074481     0.035746  Biso 1.000000     O
    O   1.0     0.944117     0.574499     0.035687  Biso 1.000000     O
    O   1.0     0.075800     0.052064     0.937402  Biso 1.000000     O
    O   1.0     0.075828     0.552061     0.937287  Biso 1.000000     O
    O   1.0     0.575772     0.052147     0.937188  Biso 1.000000     O
    O   1.0     0.575789     0.552143     0.937203  Biso 1.000000     O
    O   1.0     0.185588     0.057012     0.906029  Biso 1.000000     O
    O   1.0     0.185621     0.556987     0.905929  Biso 1.000000     O
    O   1.0     0.685431     0.057142     0.904975  Biso 1.000000     O
    O   1.0     0.685443     0.557134     0.904961  Biso 1.000000     O
    O   1.0     0.344849     0.150334     0.747529  Biso 1.000000     O
    O   1.0     0.344840     0.650261     0.747554  Biso 1.000000     O
    O   1.0     0.844707     0.150380     0.747078  Biso 1.000000     O
    O   1.0     0.844710     0.650374     0.747077  Biso 1.000000     O
    O   1.0     0.274985     0.157477     0.867186  Biso 1.000000     O
    O   1.0     0.274954     0.657452     0.867173  Biso 1.000000     O
    O   1.0     0.774610     0.157489     0.866484  Biso 1.000000     O
    O   1.0     0.774603     0.657483     0.866473  Biso 1.000000     O
    O   1.0     0.239088     0.065346     0.715510  Biso 1.000000     O
    O   1.0     0.239091     0.565215     0.715365  Biso 1.000000     O
    O   1.0     0.739187     0.065208     0.714910  Biso 1.000000     O
    O   1.0     0.739187     0.565198     0.714900  Biso 1.000000     O
    O   1.0     0.250009     0.479784     0.639859  Biso 1.000000     O
    O   1.0     0.249996     0.979841     0.640198  Biso 1.000000     O
    O   1.0     0.750015     0.479710     0.639632  Biso 1.000000     O
    O   1.0     0.750019     0.979700     0.639642  Biso 1.000000     O
    O   1.0     0.374107     0.075353     0.613041  Biso 1.000000     O
    O   1.0     0.374101     0.575320     0.612965  Biso 1.000000     O
    O   1.0     0.874145     0.075328     0.612885  Biso 1.000000     O
    O   1.0     0.874141     0.575322     0.612877  Biso 1.000000     O
    O   1.0     0.353046     0.009801     0.500272  Biso 1.000000     O
    O   1.0     0.353004     0.509807     0.500129  Biso 1.000000     O
    O   1.0     0.853022     0.009811     0.500087  Biso 1.000000     O
    O   1.0     0.853023     0.509799     0.500079  Biso 1.000000     O
    O   1.0     0.206667     0.175359     0.694053  Biso 1.000000     O
    O   1.0     0.206613     0.675208     0.694049  Biso 1.000000     O
    O   1.0     0.706064     0.175049     0.691979  Biso 1.000000     O
    O   1.0     0.706064     0.675039     0.691969  Biso 1.000000     O
    O   1.0     0.196940     0.260323     0.620862  Biso 1.000000     O
    O   1.0     0.196784     0.760207     0.621031  Biso 1.000000     O
    O   1.0     0.696945     0.260674     0.620614  Biso 1.000000     O
    O   1.0     0.696950     0.760666     0.620611  Biso 1.000000     O
    O   1.0     0.236102     0.092911     0.522562  Biso 1.000000     O
    O   1.0     0.236203     0.592730     0.522348  Biso 1.000000     O
    O   1.0     0.736363     0.092844     0.521549  Biso 1.000000     O
    O   1.0     0.736370     0.592835     0.521518  Biso 1.000000     O
    O   1.0     0.194221     0.175396     0.464547  Biso 1.000000     O
    O   1.0     0.194352     0.675243     0.464530  Biso 1.000000     O
    O   1.0     0.694179     0.175448     0.464427  Biso 1.000000     O
    O   1.0     0.694170     0.675441     0.464425  Biso 1.000000     O
    O   1.0     0.325759     0.197763     0.562978  Biso 1.000000     O
    O   1.0     0.325774     0.697681     0.563102  Biso 1.000000     O
    O   1.0     0.825797     0.197812     0.562862  Biso 1.000000     O
    O   1.0     0.825808     0.697803     0.562859  Biso 1.000000     O
    O   1.0     0.435334     0.192997     0.595733  Biso 1.000000     O
    O   1.0     0.435298     0.693097     0.596234  Biso 1.000000     O
    O   1.0     0.935422     0.192857     0.595248  Biso 1.000000     O
    O   1.0     0.935435     0.692848     0.595231  Biso 1.000000     O
   Zn   1.0     0.463985     0.377422     0.131783  Biso 1.000000    Zn
   Zn   1.0     0.463877     0.877451     0.131903  Biso 1.000000    Zn
   Zn   1.0     0.963985     0.377422     0.131788  Biso 1.000000    Zn
   Zn   1.0     0.964155     0.877457     0.132447  Biso 1.000000    Zn
   Zn   1.0     0.058766     0.370534     0.309292  Biso 1.000000    Zn
   Zn   1.0     0.058535     0.870120     0.311905  Biso 1.000000    Zn
   Zn   1.0     0.558751     0.370551     0.309273  Biso 1.000000    Zn
   Zn   1.0     0.558742     0.870535     0.309302  Biso 1.000000    Zn
   Zn   1.0     0.213987     0.372575     0.368393  Biso 1.000000    Zn
   Zn   1.0     0.213996     0.872433     0.370708  Biso 1.000000    Zn
   Zn   1.0     0.713976     0.372569     0.368271  Biso 1.000000    Zn
   Zn   1.0     0.713970     0.872559     0.368296  Biso 1.000000    Zn
   Zn   1.0     0.308749     0.379442     0.190795  Biso 1.000000    Zn
   Zn   1.0     0.308632     0.879681     0.191309  Biso 1.000000    Zn
   Zn   1.0     0.808748     0.379438     0.190754  Biso 1.000000    Zn
   Zn   1.0     0.808765     0.879377     0.190829  Biso 1.000000    Zn
   Zn   1.0     0.035951     0.122551     0.868429  Biso 1.000000    Zn
   Zn   1.0     0.035962     0.622567     0.868447  Biso 1.000000    Zn
   Zn   1.0     0.536019     0.122576     0.868363  Biso 1.000000    Zn
   Zn   1.0     0.536018     0.622578     0.868490  Biso 1.000000    Zn
   Zn   1.0     0.441266     0.129398     0.690868  Biso 1.000000    Zn
   Zn   1.0     0.441263     0.629320     0.690946  Biso 1.000000    Zn
   Zn   1.0     0.941272     0.129427     0.690810  Biso 1.000000    Zn
   Zn   1.0     0.941283     0.629445     0.690807  Biso 1.000000    Zn
   Zn   1.0     0.285957     0.127506     0.632415  Biso 1.000000    Zn
   Zn   1.0     0.285942     0.627426     0.632402  Biso 1.000000    Zn
   Zn   1.0     0.786033     0.127425     0.631814  Biso 1.000000    Zn
   Zn   1.0     0.786041     0.627413     0.631800  Biso 1.000000    Zn
   Zn   1.0     0.191420     0.120545     0.811308  Biso 1.000000    Zn
   Zn   1.0     0.191419     0.620472     0.811148  Biso 1.000000    Zn
   Zn   1.0     0.691240     0.120539     0.809299  Biso 1.000000    Zn
   Zn   1.0     0.691236     0.620531     0.809287  Biso 1.000000    Zn
   Zn   1.0    -0.000033     0.250008     0.000049  Biso 1.000000    Zn
   Zn   1.0    -0.000008     0.750005     0.000000  Biso 1.000000    Zn
   Zn   1.0     0.500009     0.250006     0.000022  Biso 1.000000    Zn
   Zn   1.0     0.499977     0.749984     0.000076  Biso 1.000000    Zn
   Zn   1.0     0.250037     0.000009     0.500596  Biso 1.000000    Zn
   Zn   1.0     0.250011     0.499973     0.500187  Biso 1.000000    Zn
   Zn   1.0     0.749997    -0.000002     0.500026  Biso 1.000000    Zn
   Zn   1.0     0.750007     0.499990     0.500021  Biso 1.000000    Zn
   Zn   1.0    -0.000001    -0.000068     0.000150  Biso 1.000000    Zn
   Zn   1.0    -0.000037     0.499972     0.000017  Biso 1.000000    Zn
   Zn   1.0     0.499961    -0.000022     0.000005  Biso 1.000000    Zn
   Zn   1.0     0.499997     0.499979     0.000015  Biso 1.000000    Zn
   Zn   1.0     0.249989     0.249952     0.500110  Biso 1.000000    Zn
   Zn   1.0     0.250063     0.749899     0.500399  Biso 1.000000    Zn
   Zn   1.0     0.750004     0.249992     0.500011  Biso 1.000000    Zn
   Zn   1.0     0.750009     0.749975     0.500013  Biso 1.000000    Zn
