#======================================================================

# CRYSTAL DATA

#----------------------------------------------------------------------

data_VESTA_phase_1


_pd_phase_name                         MOF
_cell_length_a                         15.60400
_cell_length_b                         18.90400
_cell_length_c                         19.85300
_cell_angle_alpha                      88.50500
_cell_angle_beta                       90.61400
_cell_angle_gamma                      90.14600
_symmetry_space_group_name_H-M         "P 1"
_symmetry_Int_Tables_number            1

loop_
_symmetry_equiv_pos_as_xyz
   "x, y, z"

loop_
   _atom_site_label
   _atom_site_occupancy
   _atom_site_fract_x
   _atom_site_fract_y
   _atom_site_fract_z
   _atom_site_adp_type
   _atom_site_B_iso_or_equiv
   _atom_site_type_symbol
    H   1.0     0.952434     0.825884     0.752838  Biso 1.000000     H
    H   1.0     0.944040     0.807666     0.290440  Biso 1.000000     H
    H   1.0     0.113796     0.653631     0.509647  Biso 1.000000     H
    H   1.0     0.943984     0.836080     0.626121  Biso 1.000000     H
    H   1.0     0.847487     0.036932     0.758002  Biso 1.000000     H
    H   1.0     0.013370     0.767190     0.520064  Biso 1.000000     H
    H   1.0     0.880255     0.028457     0.260994  Biso 1.000000     H
    H   1.0     0.117956     0.883072     0.078479  Biso 1.000000     H
    H   1.0     0.842705     0.037378     0.631585  Biso 1.000000     H
    H   1.0     0.940111     0.826581     0.415290  Biso 1.000000     H
    H   1.0     0.116906     0.895129     0.951528  Biso 1.000000     H
    H   1.0     0.693848     0.945163     0.080911  Biso 1.000000     H
    H   1.0     0.691191     0.949550     0.953435  Biso 1.000000     H
    H   1.0     0.878005     0.037957     0.386484  Biso 1.000000     H
    H   1.0     0.452056     0.674098     0.247761  Biso 1.000000     H
    H   1.0     0.444078     0.692374     0.709703  Biso 1.000000     H
    H   1.0     0.612772     0.845707     0.488769  Biso 1.000000     H
    H   1.0     0.442887     0.663843     0.374285  Biso 1.000000     H
    H   1.0     0.348376     0.462272     0.240445  Biso 1.000000     H
    H   1.0     0.512300     0.731459     0.480124  Biso 1.000000     H
    H   1.0     0.379277     0.471534     0.737990  Biso 1.000000     H
    H   1.0     0.618128     0.617028     0.924466  Biso 1.000000     H
    H   1.0     0.342731     0.461803     0.366778  Biso 1.000000     H
    H   1.0     0.439448     0.673612     0.584769  Biso 1.000000     H
    H   1.0     0.617149     0.605050     0.051374  Biso 1.000000     H
    H   1.0     0.193734     0.554658     0.915206  Biso 1.000000     H
    H   1.0     0.191196     0.550226     0.042635  Biso 1.000000     H
    H   1.0     0.375912     0.462288     0.612428  Biso 1.000000     H
    H   1.0     0.047536     0.174095     0.247191  Biso 1.000000     H
    H   1.0     0.055940     0.192313     0.709589  Biso 1.000000     H
    H   1.0     0.886189     0.346347     0.490391  Biso 1.000000     H
    H   1.0     0.055987     0.163900     0.373908  Biso 1.000000     H
    H   1.0     0.152505     0.963054     0.242029  Biso 1.000000     H
    H   1.0     0.986617     0.232789     0.479974  Biso 1.000000     H
    H   1.0     0.119744     0.971526     0.739035  Biso 1.000000     H
    H   1.0     0.882033     0.116906     0.921549  Biso 1.000000     H
    H   1.0     0.157285     0.962608     0.368446  Biso 1.000000     H
    H   1.0     0.059869     0.173398     0.584739  Biso 1.000000     H
    H   1.0     0.883081     0.104853     0.048500  Biso 1.000000     H
    H   1.0     0.306140     0.054820     0.919120  Biso 1.000000     H
    H   1.0     0.308796     0.050437     0.046597  Biso 1.000000     H
    H   1.0     0.121991     0.962025     0.613546  Biso 1.000000     H
    H   1.0     0.547923     0.325882     0.752268  Biso 1.000000     H
    H   1.0     0.555931     0.307594     0.290325  Biso 1.000000     H
    H   1.0     0.387203     0.154272     0.511264  Biso 1.000000     H
    H   1.0     0.557092     0.336136     0.625745  Biso 1.000000     H
    H   1.0     0.651614     0.537706     0.759583  Biso 1.000000     H
    H   1.0     0.487678     0.268520     0.519900  Biso 1.000000     H
    H   1.0     0.620684     0.528445     0.262038  Biso 1.000000     H
    H   1.0     0.381860     0.382948     0.075562  Biso 1.000000     H
    H   1.0     0.657248     0.538177     0.633251  Biso 1.000000     H
    H   1.0     0.560558     0.326357     0.415258  Biso 1.000000     H
    H   1.0     0.382837     0.394926     0.948655  Biso 1.000000     H
    H   1.0     0.806254     0.445320     0.084822  Biso 1.000000     H
    H   1.0     0.808793     0.449752     0.957393  Biso 1.000000     H
    H   1.0     0.624036     0.537693     0.387599  Biso 1.000000     H
    C   1.0     0.126473     0.831176     0.498832  Biso 1.000000     C
    C   1.0     0.981761     0.912318     0.944755  Biso 1.000000     C
    C   1.0     0.293644     0.678039     0.483563  Biso 1.000000     C
    C   1.0     0.927906     0.873733     0.727871  Biso 1.000000     C
    C   1.0     0.982633     0.919710     0.870241  Biso 1.000000     C
    C   1.0     0.929207     0.859477     0.309835  Biso 1.000000     C
    C   1.0     0.910833     0.916958     0.266925  Biso 1.000000     C
    C   1.0     0.134546     0.708370     0.503440  Biso 1.000000     C
    C   1.0     0.900120     0.931013     0.764585  Biso 1.000000     C
    C   1.0     0.983413     0.901321     0.086576  Biso 1.000000     C
    C   1.0     0.923728     0.879022     0.657826  Biso 1.000000     C
    C   1.0     0.822364     0.934197     0.870894  Biso 1.000000     C
    C   1.0     0.868779     0.991145     0.730870  Biso 1.000000     C
    C   1.0     0.081661     0.768233     0.509160  Biso 1.000000     C
    C   1.0     0.828258     0.924872     0.087312  Biso 1.000000     C
    C   1.0     0.904170     0.919302     0.980155  Biso 1.000000     C
    C   1.0     0.986063     0.896589     0.161318  Biso 1.000000     C
    C   1.0     0.892917     0.982567     0.293685  Biso 1.000000     C
    C   1.0     0.058625     0.893575     0.050609  Biso 1.000000     C
    C   1.0     0.828195     0.923208     0.162014  Biso 1.000000     C
    C   1.0     0.866499     0.991799     0.660784  Biso 1.000000     C
    C   1.0     0.219037     0.725935     0.489527  Biso 1.000000     C
    C   1.0     0.905260     0.915000     0.051902  Biso 1.000000     C
    C   1.0     0.927701     0.869798     0.379100  Biso 1.000000     C
    C   1.0     0.825732     0.931548     0.945523  Biso 1.000000     C
    C   1.0     0.057960     0.899816     0.979968  Biso 1.000000     C
    C   1.0     0.752061     0.937563     0.052190  Biso 1.000000     C
    C   1.0     0.750692     0.940362     0.981485  Biso 1.000000     C
    C   1.0     0.892278     0.987951     0.363288  Biso 1.000000     C
    C   1.0     0.092155     0.903443     0.503055  Biso 1.000000     C
    C   1.0     0.626403     0.668321     0.501167  Biso 1.000000     C
    C   1.0     0.481943     0.587672     0.056024  Biso 1.000000     C
    C   1.0     0.794010     0.822343     0.514087  Biso 1.000000     C
    C   1.0     0.427677     0.626048     0.272220  Biso 1.000000     C
    C   1.0     0.482847     0.580289     0.130592  Biso 1.000000     C
    C   1.0     0.428858     0.640592     0.690035  Biso 1.000000     C
    C   1.0     0.410400     0.583049     0.732625  Biso 1.000000     C
    C   1.0     0.633972     0.791157     0.495294  Biso 1.000000     C
    C   1.0     0.400341     0.568606     0.234927  Biso 1.000000     C
    C   1.0     0.483505     0.598680     0.914152  Biso 1.000000     C
    C   1.0     0.423156     0.620705     0.342189  Biso 1.000000     C
    C   1.0     0.322512     0.565654     0.127327  Biso 1.000000     C
    C   1.0     0.369241     0.508207     0.268026  Biso 1.000000     C
    C   1.0     0.581000     0.730880     0.490578  Biso 1.000000     C
    C   1.0     0.328235     0.575033     0.910973  Biso 1.000000     C
    C   1.0     0.404282     0.580639     0.019356  Biso 1.000000     C
    C   1.0     0.486056     0.603354     0.839411  Biso 1.000000     C
    C   1.0     0.391991     0.517472     0.705542  Biso 1.000000     C
    C   1.0     0.558767     0.606481     0.951361  Biso 1.000000     C
    C   1.0     0.328052     0.576729     0.836269  Biso 1.000000     C
    C   1.0     0.366559     0.507532     0.338078  Biso 1.000000     C
    C   1.0     0.719045     0.774256     0.508724  Biso 1.000000     C
    C   1.0     0.405344     0.584910     0.947608  Biso 1.000000     C
    C   1.0     0.426868     0.630364     0.620731  Biso 1.000000     C
    C   1.0     0.325830     0.568299     0.052731  Biso 1.000000     C
    C   1.0     0.558130     0.600280     0.022013  Biso 1.000000     C
    C   1.0     0.252024     0.562264     0.944865  Biso 1.000000     C
    C   1.0     0.250709     0.559462     0.015549  Biso 1.000000     C
    C   1.0     0.390834     0.512205     0.635919  Biso 1.000000     C
    C   1.0     0.592832     0.595549     0.497872  Biso 1.000000     C
    C   1.0     0.873509     0.168806     0.501201  Biso 1.000000     C
    C   1.0     0.018229     0.087677     0.055275  Biso 1.000000     C
    C   1.0     0.706341     0.321949     0.516467  Biso 1.000000     C
    C   1.0     0.072071     0.126249     0.272159  Biso 1.000000     C
    C   1.0     0.017352     0.080267     0.129788  Biso 1.000000     C
    C   1.0     0.070777     0.140503     0.690193  Biso 1.000000     C
    C   1.0     0.089159     0.083026     0.733104  Biso 1.000000     C
    C   1.0     0.865439     0.291608     0.496596  Biso 1.000000     C
    C   1.0     0.099859     0.068970     0.235445  Biso 1.000000     C
    C   1.0     0.016575     0.098654     0.913452  Biso 1.000000     C
    C   1.0     0.076245     0.120957     0.342204  Biso 1.000000     C
    C   1.0     0.177622     0.065782     0.129137  Biso 1.000000     C
    C   1.0     0.131211     0.008841     0.269160  Biso 1.000000     C
    C   1.0     0.918326     0.231747     0.490875  Biso 1.000000     C
    C   1.0     0.171728     0.075099     0.912718  Biso 1.000000     C
    C   1.0     0.095815     0.080669     0.019874  Biso 1.000000     C
    C   1.0     0.013929     0.103403     0.838711  Biso 1.000000     C
    C   1.0     0.107078     0.017416     0.706346  Biso 1.000000     C
    C   1.0     0.941365     0.106411     0.949420  Biso 1.000000     C
    C   1.0     0.171797     0.076781     0.838014  Biso 1.000000     C
    C   1.0     0.133485     0.008185     0.339246  Biso 1.000000     C
    C   1.0     0.780945     0.274050     0.510506  Biso 1.000000     C
    C   1.0     0.094729     0.084986     0.948127  Biso 1.000000     C
    C   1.0     0.072281     0.130181     0.620928  Biso 1.000000     C
    C   1.0     0.174256     0.068445     0.054506  Biso 1.000000     C
    C   1.0     0.942026     0.100158     0.020060  Biso 1.000000     C
    C   1.0     0.247927     0.062423     0.947840  Biso 1.000000     C
    C   1.0     0.249294     0.059615     0.018547  Biso 1.000000     C
    C   1.0     0.107716     0.012031     0.636742  Biso 1.000000     C
    C   1.0     0.907831     0.096540     0.496973  Biso 1.000000     C
    C   1.0     0.373577     0.331663     0.498861  Biso 1.000000     C
    C   1.0     0.518044     0.412296     0.944003  Biso 1.000000     C
    C   1.0     0.205973     0.177643     0.485942  Biso 1.000000     C
    C   1.0     0.572302     0.373931     0.727807  Biso 1.000000     C
    C   1.0     0.517140     0.419689     0.869438  Biso 1.000000     C
    C   1.0     0.571141     0.359379     0.309992  Biso 1.000000     C
    C   1.0     0.589582     0.416926     0.267402  Biso 1.000000     C
    C   1.0     0.366010     0.208823     0.504730  Biso 1.000000     C
    C   1.0     0.599643     0.431371     0.765100  Biso 1.000000     C
    C   1.0     0.516484     0.401296     0.085877  Biso 1.000000     C
    C   1.0     0.576822     0.379276     0.657838  Biso 1.000000     C
    C   1.0     0.677475     0.434327     0.872700  Biso 1.000000     C
    C   1.0     0.630745     0.491771     0.732003  Biso 1.000000     C
    C   1.0     0.418977     0.269103     0.509456  Biso 1.000000     C
    C   1.0     0.671752     0.424950     0.089054  Biso 1.000000     C
    C   1.0     0.595702     0.419356     0.980671  Biso 1.000000     C
    C   1.0     0.513935     0.396621     0.160616  Biso 1.000000     C
    C   1.0     0.607982     0.482505     0.294485  Biso 1.000000     C
    C   1.0     0.441222     0.393491     0.048666  Biso 1.000000     C
    C   1.0     0.671937     0.423250     0.163758  Biso 1.000000     C
    C   1.0     0.633424     0.492447     0.661952  Biso 1.000000     C
    C   1.0     0.280939     0.225731     0.491297  Biso 1.000000     C
    C   1.0     0.594648     0.415051     0.052420  Biso 1.000000     C
    C   1.0     0.573124     0.369607     0.379296  Biso 1.000000     C
    C   1.0     0.674160     0.431672     0.947297  Biso 1.000000     C
    C   1.0     0.441855     0.399700     0.978017  Biso 1.000000     C
    C   1.0     0.747966     0.437709     0.055162  Biso 1.000000     C
    C   1.0     0.749279     0.440524     0.984479  Biso 1.000000     C
    C   1.0     0.609130     0.487773     0.364109  Biso 1.000000     C
    C   1.0     0.407154     0.404435     0.502155  Biso 1.000000     C
    N   1.0     0.909041     0.932795     0.405542  Biso 1.000000     N
    N   1.0     0.902201     0.927622     0.837532  Biso 1.000000     N
    N   1.0     0.893641     0.937074     0.624776  Biso 1.000000     N
    N   1.0     0.908524     0.910461     0.194468  Biso 1.000000     N
    N   1.0     0.407581     0.567437     0.593972  Biso 1.000000     N
    N   1.0     0.402427     0.572131     0.161986  Biso 1.000000     N
    N   1.0     0.393086     0.562480     0.374647  Biso 1.000000     N
    N   1.0     0.408380     0.589466     0.805068  Biso 1.000000     N
    N   1.0     0.090947     0.067185     0.594487  Biso 1.000000     N
    N   1.0     0.097786     0.072365     0.162498  Biso 1.000000     N
    N   1.0     0.106341     0.062909     0.375254  Biso 1.000000     N
    N   1.0     0.091464     0.089512     0.805562  Biso 1.000000     N
    N   1.0     0.592398     0.432538     0.406056  Biso 1.000000     N
    N   1.0     0.597559     0.427850     0.838040  Biso 1.000000     N
    N   1.0     0.606891     0.437502     0.625381  Biso 1.000000     N
    N   1.0     0.591612     0.410505     0.194960  Biso 1.000000     N
    O   1.0     0.018150     0.910614     0.527679  Biso 1.000000     O
    O   1.0     0.141309     0.954695     0.484160  Biso 1.000000     O
    O   1.0     0.367273     0.703996     0.474926  Biso 1.000000     O
    O   1.0     0.049517     0.919574     0.838174  Biso 1.000000     O
    O   1.0     0.052052     0.882739     0.193056  Biso 1.000000     O
    O   1.0     0.277288     0.611118     0.488948  Biso 1.000000     O
    O   1.0     0.755409     0.941382     0.838906  Biso 1.000000     O
    O   1.0     0.763240     0.932179     0.194595  Biso 1.000000     O
    O   1.0     0.517750     0.586599     0.474781  Biso 1.000000     O
    O   1.0     0.644263     0.545309     0.516087  Biso 1.000000     O
    O   1.0     0.867703     0.796282     0.522758  Biso 1.000000     O
    O   1.0     0.549721     0.580601     0.163790  Biso 1.000000     O
    O   1.0     0.552023     0.617175     0.808635  Biso 1.000000     O
    O   1.0     0.778062     0.889252     0.508431  Biso 1.000000     O
    O   1.0     0.255537     0.558556     0.158236  Biso 1.000000     O
    O   1.0     0.263002     0.567793     0.802650  Biso 1.000000     O
    O   1.0     0.981838     0.089376     0.472351  Biso 1.000000     O
    O   1.0     0.858682     0.045284     0.515866  Biso 1.000000     O
    O   1.0     0.632712     0.295989     0.525100  Biso 1.000000     O
    O   1.0     0.950467     0.080412     0.161854  Biso 1.000000     O
    O   1.0     0.947938     0.117245     0.806974  Biso 1.000000     O
    O   1.0     0.722705     0.388868     0.511078  Biso 1.000000     O
    O   1.0     0.244581     0.058610     0.161120  Biso 1.000000     O
    O   1.0     0.236753     0.067810     0.805434  Biso 1.000000     O
    O   1.0     0.482234     0.413386     0.525248  Biso 1.000000     O
    O   1.0     0.355723     0.454672     0.483934  Biso 1.000000     O
    O   1.0     0.132278     0.203700     0.477275  Biso 1.000000     O
    O   1.0     0.450264     0.419384     0.836238  Biso 1.000000     O
    O   1.0     0.447965     0.382813     0.191393  Biso 1.000000     O
    O   1.0     0.221924     0.110735     0.491583  Biso 1.000000     O
    O   1.0     0.744450     0.441432     0.841791  Biso 1.000000     O
    O   1.0     0.736988     0.432197     0.197374  Biso 1.000000     O
    S   1.0     0.233548     0.816365     0.482377  Biso 1.000000     S
    S   1.0     0.734063     0.683992     0.516604  Biso 1.000000     S
    S   1.0     0.766434     0.183620     0.517651  Biso 1.000000     S
    S   1.0     0.265919     0.315995     0.483416  Biso 1.000000     S
   Zn   1.0     0.892006     0.941264     0.514092  Biso 1.000000    Zn
   Zn   1.0     0.389676     0.558477     0.485374  Biso 1.000000    Zn
   Zn   1.0     0.107985     0.058717     0.485935  Biso 1.000000    Zn
   Zn   1.0     0.610311     0.441508     0.514654  Biso 1.000000    Zn
