#======================================================================

# CRYSTAL DATA

#----------------------------------------------------------------------

data_VESTA_phase_1


_pd_phase_name                         MOF
_cell_length_a                         21.74400
_cell_length_b                         13.23500
_cell_length_c                         13.19500
_cell_angle_alpha                      86.29600
_cell_angle_beta                       108.97000
_cell_angle_gamma                      109.09900
_symmetry_space_group_name_H-M         "P 1"
_symmetry_Int_Tables_number            1

loop_
_symmetry_equiv_pos_as_xyz
   "x, y, z"

loop_
   _atom_site_label
   _atom_site_occupancy
   _atom_site_fract_x
   _atom_site_fract_y
   _atom_site_fract_z
   _atom_site_adp_type
   _atom_site_B_iso_or_equiv
   _atom_site_type_symbol
    H   1.0     0.413797     0.185380     0.740992  Biso 1.000000     H
    H   1.0     0.913638     0.185344     0.740747  Biso 1.000000     H
    H   1.0     0.366509     0.235589     0.551618  Biso 1.000000     H
    H   1.0     0.866172     0.235216     0.551294  Biso 1.000000     H
    H   1.0     0.310337     0.910670     0.440245  Biso 1.000000     H
    H   1.0     0.810401     0.910260     0.440360  Biso 1.000000     H
    H   1.0     0.358576     0.860120     0.628026  Biso 1.000000     H
    H   1.0     0.858820     0.860050     0.628229  Biso 1.000000     H
    H   1.0     0.336039     0.259796     0.813842  Biso 1.000000     H
    H   1.0     0.836163     0.259737     0.813841  Biso 1.000000     H
    H   1.0     0.383110     0.449050     0.763700  Biso 1.000000     H
    H   1.0     0.883434     0.448915     0.763687  Biso 1.000000     H
    H   1.0     0.439469     0.559392     0.089731  Biso 1.000000     H
    H   1.0     0.939497     0.559461     0.089563  Biso 1.000000     H
    H   1.0     0.391402     0.371739     0.140196  Biso 1.000000     H
    H   1.0     0.891360     0.371874     0.140087  Biso 1.000000     H
    H   1.0     0.086393     0.814652     0.259259  Biso 1.000000     H
    H   1.0     0.586224     0.814609     0.259026  Biso 1.000000     H
    H   1.0     0.133854     0.764769     0.448709  Biso 1.000000     H
    H   1.0     0.633514     0.764407     0.448402  Biso 1.000000     H
    H   1.0     0.189636     0.089722     0.559659  Biso 1.000000     H
    H   1.0     0.689694     0.089333     0.559762  Biso 1.000000     H
    H   1.0     0.141224     0.139944     0.371793  Biso 1.000000     H
    H   1.0     0.641452     0.139875     0.371979  Biso 1.000000     H
    H   1.0     0.163862     0.740252     0.186176  Biso 1.000000     H
    H   1.0     0.663999     0.740205     0.186165  Biso 1.000000     H
    H   1.0     0.116586     0.551074     0.236327  Biso 1.000000     H
    H   1.0     0.616927     0.550953     0.236308  Biso 1.000000     H
    H   1.0     0.060534     0.440527     0.910455  Biso 1.000000     H
    H   1.0     0.560558     0.440608     0.910277  Biso 1.000000     H
    H   1.0     0.108676     0.628114     0.859932  Biso 1.000000     H
    H   1.0     0.608626     0.628259     0.859808  Biso 1.000000     H
    H   1.0     0.435552     0.184199     0.219742  Biso 1.000000     H
    H   1.0     0.935215     0.183918     0.219795  Biso 1.000000     H
    H   1.0     0.017924     0.249027     0.263539  Biso 1.000000     H
    H   1.0     0.518316     0.249326     0.263426  Biso 1.000000     H
    H   1.0    -0.028577     0.367204     0.298499  Biso 1.000000     H
    H   1.0     0.471701     0.367567     0.298171  Biso 1.000000     H
    H   1.0     0.417632     0.270027     0.361333  Biso 1.000000     H
    H   1.0     0.917252     0.269597     0.361467  Biso 1.000000     H
    H   1.0     0.008874     0.319591     0.425438  Biso 1.000000     H
    H   1.0     0.509262     0.320180     0.425173  Biso 1.000000     H
    H   1.0    -0.008425     0.062355     0.310365  Biso 1.000000     H
    H   1.0     0.491890     0.062693     0.310481  Biso 1.000000     H
    H   1.0     0.028807     0.145995     0.430787  Biso 1.000000     H
    H   1.0     0.529231     0.146540     0.430769  Biso 1.000000     H
    H   1.0     0.438062     0.082094     0.381281  Biso 1.000000     H
    H   1.0     0.937651     0.081482     0.381115  Biso 1.000000     H
    H   1.0     0.314737     0.781814     0.817783  Biso 1.000000     H
    H   1.0     0.814726     0.782128     0.817844  Biso 1.000000     H
    H   1.0     0.231858     0.737019     0.754011  Biso 1.000000     H
    H   1.0     0.731825     0.736880     0.753930  Biso 1.000000     H
    H   1.0     0.277478     0.702875     0.633941  Biso 1.000000     H
    H   1.0     0.777689     0.702963     0.634126  Biso 1.000000     H
    H   1.0     0.332583     0.641149     0.730985  Biso 1.000000     H
    H   1.0     0.833030     0.641784     0.731406  Biso 1.000000     H
    H   1.0     0.241055     0.576043     0.682630  Biso 1.000000     H
    H   1.0     0.741575     0.576101     0.683048  Biso 1.000000     H
    H   1.0     0.259554     0.691058     0.941194  Biso 1.000000     H
    H   1.0     0.759618     0.691266     0.941281  Biso 1.000000     H
    H   1.0     0.222619     0.570486     0.858037  Biso 1.000000     H
    H   1.0     0.722916     0.570591     0.858304  Biso 1.000000     H
    H   1.0     0.313883     0.621989     0.921001  Biso 1.000000     H
    H   1.0     0.814170     0.622530     0.921293  Biso 1.000000     H
    H   1.0     0.064810     0.816058     0.780225  Biso 1.000000     H
    H   1.0     0.564487     0.815807     0.780273  Biso 1.000000     H
    H   1.0     0.481721     0.750683     0.736591  Biso 1.000000     H
    H   1.0     0.982101     0.750953     0.736469  Biso 1.000000     H
    H   1.0     0.528330     0.632437     0.701838  Biso 1.000000     H
    H   1.0     0.000000     0.632774     0.701525  Biso 1.000000     H
    H   1.0     0.082783     0.730381     0.638563  Biso 1.000000     H
    H   1.0     0.582401     0.729976     0.638678  Biso 1.000000     H
    H   1.0     0.490770     0.679831     0.574840  Biso 1.000000     H
    H   1.0     0.991162     0.680384     0.574581  Biso 1.000000     H
    H   1.0     0.508148     0.937316     0.689537  Biso 1.000000     H
    H   1.0     0.000000     0.937623     0.689644  Biso 1.000000     H
    H   1.0     0.470808     0.853470     0.569248  Biso 1.000000     H
    H   1.0     0.971230     0.853985     0.569220  Biso 1.000000     H
    H   1.0     0.062386     0.918496     0.618909  Biso 1.000000     H
    H   1.0     0.561977     0.917914     0.618737  Biso 1.000000     H
    H   1.0     0.185308     0.217866     0.182157  Biso 1.000000     H
    H   1.0     0.685295     0.218173     0.182224  Biso 1.000000     H
    H   1.0     0.268209     0.263128     0.246070  Biso 1.000000     H
    H   1.0     0.768174     0.262965     0.245988  Biso 1.000000     H
    H   1.0     0.222343     0.297043     0.365868  Biso 1.000000     H
    H   1.0     0.722564     0.297117     0.366066  Biso 1.000000     H
    H   1.0     0.166993     0.358203     0.268583  Biso 1.000000     H
    H   1.0     0.667456     0.358844     0.269027  Biso 1.000000     H
    H   1.0     0.258446     0.423905     0.316936  Biso 1.000000     H
    H   1.0     0.758985     0.423946     0.317372  Biso 1.000000     H
    H   1.0     0.240409     0.308727     0.058712  Biso 1.000000     H
    H   1.0     0.740473     0.308925     0.058805  Biso 1.000000     H
    H   1.0     0.277106     0.429408     0.141679  Biso 1.000000     H
    H   1.0     0.777412     0.429497     0.141961  Biso 1.000000     H
    H   1.0     0.185853     0.377454     0.078695  Biso 1.000000     H
    H   1.0     0.686147     0.377997     0.079004  Biso 1.000000     H
    C   1.0     0.388879     0.000000     0.697187  Biso 1.000000     C
    C   1.0     0.888922     0.000000     0.697157  Biso 1.000000     C
    C   1.0     0.391347     0.125560     0.674794  Biso 1.000000     C
    C   1.0     0.891228     0.125444     0.674625  Biso 1.000000     C
    C   1.0     0.365208     0.153515     0.569596  Biso 1.000000     C
    C   1.0     0.864990     0.153207     0.569386  Biso 1.000000     C
    C   1.0     0.335804     0.076301     0.484633  Biso 1.000000     C
    C   1.0     0.835656     0.075879     0.484533  Biso 1.000000     C
    C   1.0     0.333734     0.970274     0.506702  Biso 1.000000     C
    C   1.0     0.833744     0.969939     0.506746  Biso 1.000000     C
    C   1.0     0.360192     0.942572     0.611630  Biso 1.000000     C
    C   1.0     0.860301     0.942431     0.611713  Biso 1.000000     C
    C   1.0     0.306201     0.106602     0.371718  Biso 1.000000     C
    C   1.0     0.806006     0.105966     0.371564  Biso 1.000000     C
    C   1.0     0.361057     0.303144    -0.019722  Biso 1.000000     C
    C   1.0     0.861058     0.303172    -0.019774  Biso 1.000000     C
    C   1.0     0.358470     0.325749     0.873907  Biso 1.000000     C
    C   1.0     0.858582     0.325711     0.873882  Biso 1.000000     C
    C   1.0     0.384492     0.430851     0.845998  Biso 1.000000     C
    C   1.0     0.884716     0.430778     0.845958  Biso 1.000000     C
    C   1.0     0.413901     0.515462     0.923569  Biso 1.000000     C
    C   1.0     0.914082     0.515437     0.923469  Biso 1.000000     C
    C   1.0     0.416072     0.493186     0.029875  Biso 1.000000     C
    C   1.0     0.916133     0.493228     0.029742  Biso 1.000000     C
    C   1.0     0.389718     0.388354     0.057514  Biso 1.000000     C
    C   1.0     0.889714     0.388430     0.057411  Biso 1.000000     C
    C   1.0     0.443376     0.628225     0.893234  Biso 1.000000     C
    C   1.0     0.943623     0.628190     0.893139  Biso 1.000000     C
    C   1.0     0.111116    -0.019439     0.302856  Biso 1.000000     C
    C   1.0     0.611148    -0.019470     0.302824  Biso 1.000000     C
    C   1.0     0.108804     0.874549     0.325384  Biso 1.000000     C
    C   1.0     0.608676     0.874432     0.325222  Biso 1.000000     C
    C   1.0     0.135042     0.846780     0.430621  Biso 1.000000     C
    C   1.0     0.634819     0.846481     0.430420  Biso 1.000000     C
    C   1.0     0.164377     0.924104     0.515477  Biso 1.000000     C
    C   1.0     0.664226     0.923700     0.515380  Biso 1.000000     C
    C   1.0     0.166293     0.030047     0.493270  Biso 1.000000     C
    C   1.0     0.666298     0.029727     0.493307  Biso 1.000000     C
    C   1.0     0.139737     0.057561     0.388305  Biso 1.000000     C
    C   1.0     0.639836     0.057424     0.388378  Biso 1.000000     C
    C   1.0     0.194023     0.894010     0.628445  Biso 1.000000     C
    C   1.0     0.693834     0.893403     0.628294  Biso 1.000000     C
    C   1.0     0.138974     0.696815     0.000000  Biso 1.000000     C
    C   1.0     0.638977     0.696856     0.000000  Biso 1.000000     C
    C   1.0     0.141445     0.674278     0.126136  Biso 1.000000     C
    C   1.0     0.641564     0.674253     0.126099  Biso 1.000000     C
    C   1.0     0.115310     0.569211     0.154059  Biso 1.000000     C
    C   1.0     0.615543     0.569151     0.154010  Biso 1.000000     C
    C   1.0     0.085946     0.484552     0.076548  Biso 1.000000     C
    C   1.0     0.586133     0.484538     0.076441  Biso 1.000000     C
    C   1.0     0.083899     0.506760     0.970276  Biso 1.000000     C
    C   1.0     0.583958     0.506814     0.970133  Biso 1.000000     C
    C   1.0     0.110319     0.611558     0.942608  Biso 1.000000     C
    C   1.0     0.610311     0.611645     0.942491  Biso 1.000000     C
    C   1.0     0.056403     0.371799     0.106876  Biso 1.000000     C
    C   1.0     0.556660     0.371776     0.106778  Biso 1.000000     C
    C   1.0     0.467653     0.297991     0.348231  Biso 1.000000     C
    C   1.0     0.967297     0.297549     0.348452  Biso 1.000000     C
    C   1.0     0.484360     0.119269     0.358444  Biso 1.000000     C
    C   1.0     0.983980     0.118795     0.358394  Biso 1.000000     C
    C   1.0     0.282354     0.653298     0.703920  Biso 1.000000     C
    C   1.0     0.782690     0.653554     0.704226  Biso 1.000000     C
    C   1.0     0.267102     0.643405     0.884330  Biso 1.000000     C
    C   1.0     0.767291     0.643663     0.884523  Biso 1.000000     C
    C   1.0     0.032735     0.702428     0.651571  Biso 1.000000     C
    C   1.0     0.532380     0.702014     0.651781  Biso 1.000000     C
    C   1.0     0.016053     0.881184     0.641619  Biso 1.000000     C
    C   1.0     0.515678     0.880740     0.641573  Biso 1.000000     C
    C   1.0     0.217337     0.346446     0.295765  Biso 1.000000     C
    C   1.0     0.717685     0.346692     0.296087  Biso 1.000000     C
    C   1.0     0.232735     0.356330     0.115467  Biso 1.000000     C
    C   1.0     0.732928     0.356579     0.115671  Biso 1.000000     C
    N   1.0    -0.023826     0.211897     0.292636  Biso 1.000000     N
    N   1.0     0.476550     0.212278     0.292531  Biso 1.000000     N
    N   1.0     0.273844     0.708749     0.790372  Biso 1.000000     N
    N   1.0     0.773938     0.708924     0.790476  Biso 1.000000     N
    N   1.0     0.523488     0.787729     0.707486  Biso 1.000000     N
    N   1.0     0.000000     0.788080     0.707378  Biso 1.000000     N
    N   1.0     0.226093     0.291076     0.209519  Biso 1.000000     N
    N   1.0     0.726189     0.291237     0.209632  Biso 1.000000     N
    O   1.0     0.456208     0.084959     0.902455  Biso 1.000000     O
    O   1.0     0.956313     0.085182     0.902391  Biso 1.000000     O
    O   1.0     0.351925     0.911633     0.861402  Biso 1.000000     O
    O   1.0     0.852018     0.911841     0.861415  Biso 1.000000     O
    O   1.0     0.461865     0.910022     0.834907  Biso 1.000000     O
    O   1.0     0.962017     0.910249     0.834973  Biso 1.000000     O
    O   1.0     0.311792     0.203963     0.354878  Biso 1.000000     O
    O   1.0     0.811387     0.203240     0.354602  Biso 1.000000     O
    O   1.0     0.278033     0.029363     0.300128  Biso 1.000000     O
    O   1.0     0.778054     0.028697     0.300013  Biso 1.000000     O
    O   1.0     0.294805     0.097899     0.914959  Biso 1.000000     O
    O   1.0     0.794598     0.097852     0.915096  Biso 1.000000     O
    O   1.0     0.398769     0.140805     0.088923  Biso 1.000000     O
    O   1.0     0.898743     0.140859     0.088844  Biso 1.000000     O
    O   1.0     0.288014     0.164796     0.089673  Biso 1.000000     O
    O   1.0     0.788115     0.164980     0.089949  Biso 1.000000     O
    O   1.0     0.437710     0.644931     0.795536  Biso 1.000000     O
    O   1.0     0.938449     0.644810     0.795585  Biso 1.000000     O
    O   1.0     0.471431     0.699737     0.970509  Biso 1.000000     O
    O   1.0     0.971169     0.699808     0.970287  Biso 1.000000     O
    O   1.0     0.043727     0.914819     0.097622  Biso 1.000000     O
    O   1.0     0.543811     0.915034     0.097556  Biso 1.000000     O
    O   1.0     0.148021     0.088158     0.138599  Biso 1.000000     O
    O   1.0     0.648104     0.088350     0.138608  Biso 1.000000     O
    O   1.0     0.038023     0.089753     0.165043  Biso 1.000000     O
    O   1.0     0.538169     0.089978     0.165106  Biso 1.000000     O
    O   1.0     0.188637     0.796733     0.645402  Biso 1.000000     O
    O   1.0     0.688228     0.796038     0.645140  Biso 1.000000     O
    O   1.0     0.221967     0.971272     0.700003  Biso 1.000000     O
    O   1.0     0.722009     0.970646     0.699881  Biso 1.000000     O
    O   1.0     0.205418     0.902135     0.084924  Biso 1.000000     O
    O   1.0     0.705253     0.902100     0.085046  Biso 1.000000     O
    O   1.0     0.101284     0.859113     0.911163  Biso 1.000000     O
    O   1.0     0.601272     0.859211     0.911099  Biso 1.000000     O
    O   1.0     0.211926     0.835017     0.910086  Biso 1.000000     O
    O   1.0     0.712011     0.835190     0.910313  Biso 1.000000     O
    O   1.0     0.061565     0.355179     0.204425  Biso 1.000000     O
    O   1.0     0.562319     0.355075     0.204475  Biso 1.000000     O
    O   1.0     0.028859     0.300183     0.029726  Biso 1.000000     O
    O   1.0     0.528602     0.300262     0.029504  Biso 1.000000     O
    P   1.0     0.417804     0.980593     0.834578  Biso 1.000000     P
    P   1.0     0.917911     0.980757     0.834590  Biso 1.000000     P
    P   1.0     0.332576     0.165991     0.019355  Biso 1.000000     P
    P   1.0     0.832533     0.166058     0.019411  Biso 1.000000     P
    P   1.0     0.082128     0.019243     0.165424  Biso 1.000000     P
    P   1.0     0.582223     0.019398     0.165433  Biso 1.000000     P
    P   1.0     0.167497     0.833928     0.980608  Biso 1.000000     P
    P   1.0     0.667463     0.834009     0.980651  Biso 1.000000     P
   Zn   1.0     0.479742     0.146695     0.044301  Biso 1.000000    Zn
   Zn   1.0     0.979726     0.146694     0.044290  Biso 1.000000    Zn
   Zn   1.0     0.270553     0.955897     0.853520  Biso 1.000000    Zn
   Zn   1.0     0.770550     0.955950     0.853556  Biso 1.000000    Zn
   Zn   1.0     0.020306     0.853298     0.955726  Biso 1.000000    Zn
   Zn   1.0     0.520293     0.853301     0.955711  Biso 1.000000    Zn
   Zn   1.0     0.229486     0.044045     0.146455  Biso 1.000000    Zn
   Zn   1.0     0.729479     0.044092     0.146495  Biso 1.000000    Zn
