#======================================================================

# CRYSTAL DATA

#----------------------------------------------------------------------

data_VESTA_phase_1


_pd_phase_name                         MOF
_cell_length_a                         18.50600
_cell_length_b                         15.90500
_cell_length_c                         14.55900
_cell_angle_alpha                      89.90400
_cell_angle_beta                       86.85500
_cell_angle_gamma                      90.01700
_symmetry_space_group_name_H-M         "P 1"
_symmetry_Int_Tables_number            1

loop_
_symmetry_equiv_pos_as_xyz
   "x, y, z"

loop_
   _atom_site_label
   _atom_site_occupancy
   _atom_site_fract_x
   _atom_site_fract_y
   _atom_site_fract_z
   _atom_site_adp_type
   _atom_site_B_iso_or_equiv
   _atom_site_type_symbol
    H   1.0     0.511171     0.218106     0.026388  Biso 1.000000     H
    H   1.0     0.000000     0.218112     0.026379  Biso 1.000000     H
    H   1.0     0.140815     0.021526     0.898583  Biso 1.000000     H
    H   1.0     0.640817     0.021520     0.898590  Biso 1.000000     H
    H   1.0     0.213636     0.150672     0.136747  Biso 1.000000     H
    H   1.0     0.713639     0.150662     0.136756  Biso 1.000000     H
    H   1.0     0.158015     0.349184     0.925479  Biso 1.000000     H
    H   1.0     0.658024     0.349180     0.925489  Biso 1.000000     H
    H   1.0     0.359463     0.263967     0.000000  Biso 1.000000     H
    H   1.0     0.859475     0.263965     0.000000  Biso 1.000000     H
    H   1.0     0.213766     0.226718     0.805192  Biso 1.000000     H
    H   1.0     0.713772     0.226714     0.805201  Biso 1.000000     H
    H   1.0     0.196694     0.389019     0.093505  Biso 1.000000     H
    H   1.0     0.696709     0.389017     0.093513  Biso 1.000000     H
    H   1.0     0.286124     0.368365     0.119673  Biso 1.000000     H
    H   1.0     0.786139     0.368363     0.119677  Biso 1.000000     H
    H   1.0     0.330495     0.476826     0.001032  Biso 1.000000     H
    H   1.0     0.830508     0.476823     0.001036  Biso 1.000000     H
    H   1.0     0.277111     0.515597     0.096656  Biso 1.000000     H
    H   1.0     0.777126     0.515595     0.096660  Biso 1.000000     H
    H   1.0     0.374433     0.863383     0.654383  Biso 1.000000     H
    H   1.0     0.874451     0.863382     0.654383  Biso 1.000000     H
    H   1.0     0.236592     0.856830     0.614219  Biso 1.000000     H
    H   1.0     0.736610     0.856825     0.614219  Biso 1.000000     H
    H   1.0     0.183734     0.948756     0.634829  Biso 1.000000     H
    H   1.0     0.683749     0.948750     0.634829  Biso 1.000000     H
    H   1.0     0.237937     0.070284     0.723016  Biso 1.000000     H
    H   1.0     0.737950     0.070280     0.723014  Biso 1.000000     H
    H   1.0     0.445384     0.974382     0.768223  Biso 1.000000     H
    H   1.0     0.945399     0.974385     0.768223  Biso 1.000000     H
    H   1.0     0.215315     0.917831     0.466166  Biso 1.000000     H
    H   1.0     0.715330     0.917827     0.466166  Biso 1.000000     H
    H   1.0     0.307199     0.930133     0.485490  Biso 1.000000     H
    H   1.0     0.807215     0.930128     0.485489  Biso 1.000000     H
    H   1.0     0.239094     0.717979     0.474074  Biso 1.000000     H
    H   1.0     0.739105     0.717972     0.474071  Biso 1.000000     H
    H   1.0     0.109023     0.521345     0.602101  Biso 1.000000     H
    H   1.0     0.609037     0.521333     0.602091  Biso 1.000000     H
    H   1.0     0.036573     0.651083     0.363668  Biso 1.000000     H
    H   1.0     0.536588     0.651074     0.363659  Biso 1.000000     H
    H   1.0     0.092842     0.848584     0.574020  Biso 1.000000     H
    H   1.0     0.592851     0.848581     0.574019  Biso 1.000000     H
    H   1.0     0.390894     0.764715     0.485696  Biso 1.000000     H
    H   1.0     0.890903     0.764715     0.485694  Biso 1.000000     H
    H   1.0     0.036611     0.726252     0.694641  Biso 1.000000     H
    H   1.0     0.536620     0.726249     0.694641  Biso 1.000000     H
    H   1.0     0.054456     0.889761     0.406932  Biso 1.000000     H
    H   1.0     0.554464     0.889760     0.406933  Biso 1.000000     H
    H   1.0     0.465378     0.868658     0.379564  Biso 1.000000     H
    H   1.0     0.965386     0.868660     0.379563  Biso 1.000000     H
    H   1.0     0.419633     0.976552     0.497523  Biso 1.000000     H
    H   1.0     0.919642     0.976554     0.497521  Biso 1.000000     H
    H   1.0     0.473883     0.016018     0.402881  Biso 1.000000     H
    H   1.0     0.973893     0.016020     0.402881  Biso 1.000000     H
    H   1.0     0.376691     0.362373     0.844822  Biso 1.000000     H
    H   1.0     0.876699     0.362377     0.844826  Biso 1.000000     H
    H   1.0     0.014031     0.356851     0.886437  Biso 1.000000     H
    H   1.0     0.514036     0.356850     0.886439  Biso 1.000000     H
    H   1.0     0.066757     0.448960     0.865699  Biso 1.000000     H
    H   1.0     0.566763     0.448958     0.865701  Biso 1.000000     H
    H   1.0     0.012019     0.571039     0.778100  Biso 1.000000     H
    H   1.0     0.512024     0.571040     0.778105  Biso 1.000000     H
    H   1.0     0.305349     0.473620     0.731398  Biso 1.000000     H
    H   1.0     0.805357     0.473623     0.731402  Biso 1.000000     H
    H   1.0     0.034988     0.418097     0.034302  Biso 1.000000     H
    H   1.0     0.534992     0.418095     0.034304  Biso 1.000000     H
    H   1.0     0.443087     0.429764     0.014703  Biso 1.000000     H
    H   1.0     0.943099     0.429761     0.014702  Biso 1.000000     H
    H   1.0    -0.011164     0.781886     0.973651  Biso 1.000000     H
    H   1.0     0.488847     0.781894     0.973645  Biso 1.000000     H
    H   1.0     0.359205     0.978485     0.101438  Biso 1.000000     H
    H   1.0     0.859209     0.978478     0.101443  Biso 1.000000     H
    H   1.0     0.286382     0.849341     0.863273  Biso 1.000000     H
    H   1.0     0.786388     0.849336     0.863276  Biso 1.000000     H
    H   1.0     0.341997     0.650832     0.074533  Biso 1.000000     H
    H   1.0     0.842008     0.650834     0.074539  Biso 1.000000     H
    H   1.0     0.140541     0.736045    -0.014267  Biso 1.000000     H
    H   1.0     0.640553     0.736041    -0.014266  Biso 1.000000     H
    H   1.0     0.286249     0.773293     0.194829  Biso 1.000000     H
    H   1.0     0.786258     0.773295     0.194832  Biso 1.000000     H
    H   1.0     0.303307     0.610996     0.906511  Biso 1.000000     H
    H   1.0     0.803321     0.610994     0.906518  Biso 1.000000     H
    H   1.0     0.213876     0.631652     0.880351  Biso 1.000000     H
    H   1.0     0.713891     0.631649     0.880355  Biso 1.000000     H
    H   1.0     0.169508     0.523190     0.998989  Biso 1.000000     H
    H   1.0     0.669521     0.523188     0.998994  Biso 1.000000     H
    H   1.0     0.222890     0.484419     0.903364  Biso 1.000000     H
    H   1.0     0.722903     0.484417     0.903370  Biso 1.000000     H
    H   1.0     0.125573     0.136629     0.345634  Biso 1.000000     H
    H   1.0     0.625585     0.136624     0.345644  Biso 1.000000     H
    H   1.0     0.263404     0.143179     0.385820  Biso 1.000000     H
    H   1.0     0.763419     0.143175     0.385820  Biso 1.000000     H
    H   1.0     0.316267     0.051255     0.365215  Biso 1.000000     H
    H   1.0     0.816280     0.051250     0.365214  Biso 1.000000     H
    H   1.0     0.262062     0.929713     0.277039  Biso 1.000000     H
    H   1.0     0.762075     0.929713     0.277034  Biso 1.000000     H
    H   1.0     0.054625     0.025624     0.231798  Biso 1.000000     H
    H   1.0     0.554634     0.025622     0.231808  Biso 1.000000     H
    H   1.0     0.284681     0.082180     0.533875  Biso 1.000000     H
    H   1.0     0.784697     0.082175     0.533875  Biso 1.000000     H
    H   1.0     0.192797     0.069878     0.514549  Biso 1.000000     H
    H   1.0     0.692813     0.069874     0.514551  Biso 1.000000     H
    H   1.0     0.260910     0.282025     0.525958  Biso 1.000000     H
    H   1.0     0.760918     0.282027     0.525962  Biso 1.000000     H
    H   1.0     0.390980     0.478664     0.397940  Biso 1.000000     H
    H   1.0     0.890988     0.478663     0.397939  Biso 1.000000     H
    H   1.0     0.463427     0.348923     0.636372  Biso 1.000000     H
    H   1.0     0.963437     0.348923     0.636371  Biso 1.000000     H
    H   1.0     0.407160     0.151422     0.426004  Biso 1.000000     H
    H   1.0     0.907168     0.151422     0.426007  Biso 1.000000     H
    H   1.0     0.109108     0.235285     0.514336  Biso 1.000000     H
    H   1.0     0.609116     0.235284     0.514336  Biso 1.000000     H
    H   1.0     0.463393     0.273757     0.305389  Biso 1.000000     H
    H   1.0     0.963401     0.273757     0.305390  Biso 1.000000     H
    H   1.0     0.445545     0.110236     0.593089  Biso 1.000000     H
    H   1.0     0.945554     0.110236     0.593091  Biso 1.000000     H
    H   1.0     0.034624     0.131339     0.620464  Biso 1.000000     H
    H   1.0     0.534631     0.131339     0.620462  Biso 1.000000     H
    H   1.0     0.080370     0.023451     0.502499  Biso 1.000000     H
    H   1.0     0.580378     0.023451     0.502497  Biso 1.000000     H
    H   1.0     0.026122     0.983980     0.597139  Biso 1.000000     H
    H   1.0     0.526130     0.983980     0.597139  Biso 1.000000     H
    H   1.0     0.123319     0.637624     0.155210  Biso 1.000000     H
    H   1.0     0.623329     0.637624     0.155209  Biso 1.000000     H
    H   1.0     0.485980     0.643156     0.113605  Biso 1.000000     H
    H   1.0     0.985985     0.643154     0.113605  Biso 1.000000     H
    H   1.0     0.433251     0.551048     0.134344  Biso 1.000000     H
    H   1.0     0.933258     0.551046     0.134343  Biso 1.000000     H
    H   1.0     0.487989     0.428967     0.221939  Biso 1.000000     H
    H   1.0     0.987995     0.428965     0.221937  Biso 1.000000     H
    H   1.0     0.194661     0.526373     0.268629  Biso 1.000000     H
    H   1.0     0.694671     0.526372     0.268628  Biso 1.000000     H
    H   1.0     0.465019     0.581911     0.965739  Biso 1.000000     H
    H   1.0     0.965024     0.581909     0.965739  Biso 1.000000     H
    H   1.0     0.056914     0.570245     0.985336  Biso 1.000000     H
    H   1.0     0.556924     0.570242     0.985337  Biso 1.000000     H
    C   1.0     0.060119     0.180269     0.022975  Biso 1.000000     C
    C   1.0     0.560122     0.180261     0.022985  Biso 1.000000     C
    C   1.0     0.070816     0.120146     0.953275  Biso 1.000000     C
    C   1.0     0.570821     0.120142     0.953281  Biso 1.000000     C
    C   1.0     0.097266     0.256772     0.162660  Biso 1.000000     C
    C   1.0     0.597270     0.256764     0.162668  Biso 1.000000     C
    C   1.0     0.515301     0.111581     0.881489  Biso 1.000000     C
    C   1.0     0.000000     0.111585     0.881483  Biso 1.000000     C
    C   1.0     0.111272     0.192433     0.088615  Biso 1.000000     C
    C   1.0     0.611270     0.192415     0.088634  Biso 1.000000     C
    C   1.0     0.132515     0.069400     0.951438  Biso 1.000000     C
    C   1.0     0.632519     0.069394     0.951445  Biso 1.000000     C
    C   1.0     0.173379     0.142483     0.085765  Biso 1.000000     C
    C   1.0     0.673383     0.142474     0.085774  Biso 1.000000     C
    C   1.0     0.183558     0.079875     0.018833  Biso 1.000000     C
    C   1.0     0.683564     0.079871     0.018837  Biso 1.000000     C
    C   1.0     0.208119     0.314247     0.924392  Biso 1.000000     C
    C   1.0     0.708128     0.314243     0.924400  Biso 1.000000     C
    C   1.0     0.312977     0.270540     0.972662  Biso 1.000000     C
    C   1.0     0.812989     0.270538     0.972665  Biso 1.000000     C
    C   1.0     0.235145     0.252346     0.866950  Biso 1.000000     C
    C   1.0     0.735152     0.252342     0.866957  Biso 1.000000     C
    C   1.0     0.252642     0.389535     0.064202  Biso 1.000000     C
    C   1.0     0.752656     0.389532     0.064207  Biso 1.000000     C
    C   1.0     0.275137     0.478594     0.033017  Biso 1.000000     C
    C   1.0     0.775150     0.478591     0.033022  Biso 1.000000     C
    C   1.0     0.358222     0.923332     0.683745  Biso 1.000000     C
    C   1.0     0.858238     0.923331     0.683746  Biso 1.000000     C
    C   1.0     0.237060     0.925769     0.608919  Biso 1.000000     C
    C   1.0     0.737076     0.925765     0.608919  Biso 1.000000     C
    C   1.0     0.284528     0.029196     0.721636  Biso 1.000000     C
    C   1.0     0.784542     0.029193     0.721635  Biso 1.000000     C
    C   1.0     0.391887     0.976780     0.741435  Biso 1.000000     C
    C   1.0     0.891901     0.976781     0.741435  Biso 1.000000     C
    C   1.0     0.252835     0.952606     0.508424  Biso 1.000000     C
    C   1.0     0.752850     0.952602     0.508423  Biso 1.000000     C
    C   1.0     0.190078     0.680205     0.477483  Biso 1.000000     C
    C   1.0     0.690089     0.680198     0.477478  Biso 1.000000     C
    C   1.0     0.179245     0.619967     0.547308  Biso 1.000000     C
    C   1.0     0.679260     0.619956     0.547299  Biso 1.000000     C
    C   1.0     0.152958     0.757006     0.337653  Biso 1.000000     C
    C   1.0     0.652968     0.757005     0.337653  Biso 1.000000     C
    C   1.0     0.234776     0.611352     0.619133  Biso 1.000000     C
    C   1.0     0.734785     0.611351     0.619133  Biso 1.000000     C
    C   1.0     0.138968     0.692573     0.411811  Biso 1.000000     C
    C   1.0     0.638982     0.692562     0.411802  Biso 1.000000     C
    C   1.0     0.117459     0.569295     0.549168  Biso 1.000000     C
    C   1.0     0.617472     0.569287     0.549161  Biso 1.000000     C
    C   1.0     0.076792     0.642718     0.414679  Biso 1.000000     C
    C   1.0     0.576805     0.642710     0.414673  Biso 1.000000     C
    C   1.0     0.066499     0.579968     0.481635  Biso 1.000000     C
    C   1.0     0.566511     0.579961     0.481630  Biso 1.000000     C
    C   1.0     0.042549     0.813963     0.575296  Biso 1.000000     C
    C   1.0     0.542557     0.813960     0.575297  Biso 1.000000     C
    C   1.0     0.437442     0.770942     0.527267  Biso 1.000000     C
    C   1.0     0.937451     0.770942     0.527265  Biso 1.000000     C
    C   1.0     0.015272     0.752117     0.632894  Biso 1.000000     C
    C   1.0     0.515280     0.752114     0.632895  Biso 1.000000     C
    C   1.0    -0.001699     0.889863     0.435502  Biso 1.000000     C
    C   1.0     0.498309     0.889861     0.435503  Biso 1.000000     C
    C   1.0     0.475283     0.978678     0.466486  Biso 1.000000     C
    C   1.0     0.975292     0.978680     0.466486  Biso 1.000000     C
    C   1.0     0.392597     0.422700     0.815908  Biso 1.000000     C
    C   1.0     0.892606     0.422702     0.815910  Biso 1.000000     C
    C   1.0     0.013422     0.425786     0.891489  Biso 1.000000     C
    C   1.0     0.513428     0.425785     0.891491  Biso 1.000000     C
    C   1.0     0.465727     0.529494     0.778975  Biso 1.000000     C
    C   1.0     0.965737     0.529495     0.778973  Biso 1.000000     C
    C   1.0     0.358761     0.476309     0.758387  Biso 1.000000     C
    C   1.0     0.858770     0.476311     0.758389  Biso 1.000000     C
    C   1.0     0.497384     0.452578     0.991836  Biso 1.000000     C
    C   1.0     0.997395     0.452577     0.991835  Biso 1.000000     C
    C   1.0     0.439897     0.819738     0.977047  Biso 1.000000     C
    C   1.0     0.939902     0.819732     0.977051  Biso 1.000000     C
    C   1.0     0.429199     0.879861     0.046748  Biso 1.000000     C
    C   1.0     0.929204     0.879854     0.046753  Biso 1.000000     C
    C   1.0     0.402743     0.743229     0.837366  Biso 1.000000     C
    C   1.0     0.902750     0.743226     0.837369  Biso 1.000000     C
    C   1.0    -0.015294     0.888413     0.118548  Biso 1.000000     C
    C   1.0     0.484715     0.888413     0.118547  Biso 1.000000     C
    C   1.0     0.388747     0.807581     0.911400  Biso 1.000000     C
    C   1.0     0.888749     0.807569     0.911411  Biso 1.000000     C
    C   1.0     0.367502     0.930609     0.048584  Biso 1.000000     C
    C   1.0     0.867509     0.930606     0.048586  Biso 1.000000     C
    C   1.0     0.326638     0.857528     0.914256  Biso 1.000000     C
    C   1.0     0.826645     0.857524     0.914258  Biso 1.000000     C
    C   1.0     0.316459     0.920136     0.981189  Biso 1.000000     C
    C   1.0     0.816467     0.920134     0.981189  Biso 1.000000     C
    C   1.0     0.291892     0.685767     0.075626  Biso 1.000000     C
    C   1.0     0.791903     0.685768     0.075630  Biso 1.000000     C
    C   1.0     0.187028     0.729471     0.027368  Biso 1.000000     C
    C   1.0     0.687040     0.729469     0.027370  Biso 1.000000     C
    C   1.0     0.264867     0.747665     0.133073  Biso 1.000000     C
    C   1.0     0.764877     0.747666     0.133076  Biso 1.000000     C
    C   1.0     0.247360     0.610481     0.935819  Biso 1.000000     C
    C   1.0     0.747374     0.610479     0.935824  Biso 1.000000     C
    C   1.0     0.224866     0.521422     0.967004  Biso 1.000000     C
    C   1.0     0.724879     0.521420     0.967009  Biso 1.000000     C
    C   1.0     0.141783     0.076676     0.316280  Biso 1.000000     C
    C   1.0     0.641794     0.076672     0.316287  Biso 1.000000     C
    C   1.0     0.262939     0.074240     0.391121  Biso 1.000000     C
    C   1.0     0.762953     0.074235     0.391121  Biso 1.000000     C
    C   1.0     0.215474     0.970804     0.278410  Biso 1.000000     C
    C   1.0     0.715486     0.970802     0.278408  Biso 1.000000     C
    C   1.0     0.108120     0.023224     0.258592  Biso 1.000000     C
    C   1.0     0.608131     0.023221     0.258599  Biso 1.000000     C
    C   1.0     0.247162     0.047404     0.491617  Biso 1.000000     C
    C   1.0     0.747178     0.047400     0.491617  Biso 1.000000     C
    C   1.0     0.309926     0.319799     0.522551  Biso 1.000000     C
    C   1.0     0.809935     0.319799     0.522552  Biso 1.000000     C
    C   1.0     0.320756     0.380040     0.452730  Biso 1.000000     C
    C   1.0     0.820766     0.380039     0.452729  Biso 1.000000     C
    C   1.0     0.347045     0.242990     0.662376  Biso 1.000000     C
    C   1.0     0.847052     0.242994     0.662380  Biso 1.000000     C
    C   1.0     0.265230     0.388644     0.380896  Biso 1.000000     C
    C   1.0     0.765238     0.388645     0.380898  Biso 1.000000     C
    C   1.0     0.361034     0.307432     0.588226  Biso 1.000000     C
    C   1.0     0.861042     0.307434     0.588228  Biso 1.000000     C
    C   1.0     0.382543     0.430710     0.450869  Biso 1.000000     C
    C   1.0     0.882553     0.430708     0.450868  Biso 1.000000     C
    C   1.0     0.423209     0.357287     0.585359  Biso 1.000000     C
    C   1.0     0.923219     0.357285     0.585357  Biso 1.000000     C
    C   1.0     0.433503     0.420036     0.518402  Biso 1.000000     C
    C   1.0     0.933512     0.420036     0.518402  Biso 1.000000     C
    C   1.0     0.457454     0.186042     0.424730  Biso 1.000000     C
    C   1.0     0.957462     0.186043     0.424732  Biso 1.000000     C
    C   1.0     0.062560     0.229059     0.472765  Biso 1.000000     C
    C   1.0     0.562569     0.229059     0.472764  Biso 1.000000     C
    C   1.0     0.484731     0.247890     0.367135  Biso 1.000000     C
    C   1.0     0.984739     0.247890     0.367137  Biso 1.000000     C
    C   1.0     0.501701     0.110137     0.564521  Biso 1.000000     C
    C   1.0     0.000000     0.110137     0.564523  Biso 1.000000     C
    C   1.0     0.024720     0.021322     0.533536  Biso 1.000000     C
    C   1.0     0.524728     0.021321     0.533535  Biso 1.000000     C
    C   1.0     0.107411     0.577298     0.184126  Biso 1.000000     C
    C   1.0     0.607421     0.577299     0.184125  Biso 1.000000     C
    C   1.0     0.486587     0.574220     0.108552  Biso 1.000000     C
    C   1.0     0.986593     0.574219     0.108551  Biso 1.000000     C
    C   1.0     0.034279     0.470507     0.221063  Biso 1.000000     C
    C   1.0     0.534288     0.470509     0.221065  Biso 1.000000     C
    C   1.0     0.141248     0.523687     0.241644  Biso 1.000000     C
    C   1.0     0.641258     0.523687     0.241643  Biso 1.000000     C
    C   1.0     0.002618     0.547428     0.008205  Biso 1.000000     C
    C   1.0     0.502627     0.547428     0.008206  Biso 1.000000     C
    N   1.0     0.257950     0.325969     0.990805  Biso 1.000000     N
    N   1.0     0.757961     0.325966     0.990810  Biso 1.000000     N
    N   1.0     0.300801     0.225337     0.897486  Biso 1.000000     N
    N   1.0     0.800810     0.225333     0.897490  Biso 1.000000     N
    N   1.0     0.247346     0.031706     0.026738  Biso 1.000000     N
    N   1.0     0.747351     0.031700     0.026742  Biso 1.000000     N
    N   1.0     0.345453     0.042910     0.764349  Biso 1.000000     N
    N   1.0     0.845466     0.042910     0.764348  Biso 1.000000     N
    N   1.0     0.290127     0.957204     0.671810  Biso 1.000000     N
    N   1.0     0.790143     0.957201     0.671809  Biso 1.000000     N
    N   1.0    -0.007277     0.826086     0.508930  Biso 1.000000     N
    N   1.0     0.492731     0.826085     0.508931  Biso 1.000000     N
    N   1.0     0.449464     0.725532     0.602509  Biso 1.000000     N
    N   1.0     0.949473     0.725533     0.602508  Biso 1.000000     N
    N   1.0     0.002652     0.531948     0.473532  Biso 1.000000     N
    N   1.0     0.502657     0.531952     0.473539  Biso 1.000000     N
    N   1.0     0.404847     0.543011     0.736067  Biso 1.000000     N
    N   1.0     0.904856     0.543012     0.736067  Biso 1.000000     N
    N   1.0     0.460435     0.457064     0.828332  Biso 1.000000     N
    N   1.0     0.960445     0.457065     0.828331  Biso 1.000000     N
    N   1.0     0.242057     0.674045     0.009218  Biso 1.000000     N
    N   1.0     0.742069     0.674044     0.009222  Biso 1.000000     N
    N   1.0     0.199208     0.774673     0.102544  Biso 1.000000     N
    N   1.0     0.699218     0.774672     0.102546  Biso 1.000000     N
    N   1.0     0.252672     0.968306     0.973283  Biso 1.000000     N
    N   1.0     0.752682     0.968306     0.973280  Biso 1.000000     N
    N   1.0     0.154551     0.957089     0.235691  Biso 1.000000     N
    N   1.0     0.654562     0.957088     0.235692  Biso 1.000000     N
    N   1.0     0.209875     0.042801     0.328228  Biso 1.000000     N
    N   1.0     0.709887     0.042798     0.328229  Biso 1.000000     N
    N   1.0     0.507279     0.173916     0.491096  Biso 1.000000     N
    N   1.0     0.000000     0.173916     0.491097  Biso 1.000000     N
    N   1.0     0.050539     0.274471     0.397524  Biso 1.000000     N
    N   1.0     0.550547     0.274471     0.397523  Biso 1.000000     N
    N   1.0     0.497357     0.468046     0.526493  Biso 1.000000     N
    N   1.0     0.997360     0.468055     0.526504  Biso 1.000000     N
    N   1.0     0.095160     0.456987     0.263966  Biso 1.000000     N
    N   1.0     0.595170     0.456988     0.263967  Biso 1.000000     N
    N   1.0     0.039570     0.542938     0.171707  Biso 1.000000     N
    N   1.0     0.539581     0.542939     0.171708  Biso 1.000000     N
    O   1.0     0.455330     0.152380     0.902068  Biso 1.000000     O
    O   1.0     0.955340     0.152379     0.902067  Biso 1.000000     O
    O   1.0     0.149569     0.267629     0.217500  Biso 1.000000     O
    O   1.0     0.649578     0.267628     0.217502  Biso 1.000000     O
    O   1.0     0.037961     0.295057     0.168141  Biso 1.000000     O
    O   1.0     0.537976     0.295071     0.168131  Biso 1.000000     O
    O   1.0     0.028574     0.069522     0.810400  Biso 1.000000     O
    O   1.0     0.528579     0.069513     0.810409  Biso 1.000000     O
    O   1.0     0.294877     0.651852     0.598079  Biso 1.000000     O
    O   1.0     0.794886     0.651851     0.598078  Biso 1.000000     O
    O   1.0     0.100551     0.767917     0.282952  Biso 1.000000     O
    O   1.0     0.600558     0.767920     0.282956  Biso 1.000000     O
    O   1.0     0.212286     0.795273     0.331939  Biso 1.000000     O
    O   1.0     0.712292     0.795279     0.331945  Biso 1.000000     O
    O   1.0     0.221439     0.569609     0.690597  Biso 1.000000     O
    O   1.0     0.721444     0.569619     0.690603  Biso 1.000000     O
    O   1.0     0.044681     0.847626     0.097959  Biso 1.000000     O
    O   1.0     0.544690     0.847625     0.097959  Biso 1.000000     O
    O   1.0     0.350434     0.732364     0.782537  Biso 1.000000     O
    O   1.0     0.850443     0.732366     0.782534  Biso 1.000000     O
    O   1.0     0.462041     0.704929     0.831895  Biso 1.000000     O
    O   1.0     0.962054     0.704939     0.831886  Biso 1.000000     O
    O   1.0     0.471431     0.930460     0.189641  Biso 1.000000     O
    O   1.0     0.971440     0.930467     0.189637  Biso 1.000000     O
    O   1.0     0.205131     0.348138     0.401947  Biso 1.000000     O
    O   1.0     0.705139     0.348140     0.401949  Biso 1.000000     O
    O   1.0     0.399451     0.232078     0.717079  Biso 1.000000     O
    O   1.0     0.899458     0.232083     0.717084  Biso 1.000000     O
    O   1.0     0.287720     0.204717     0.668082  Biso 1.000000     O
    O   1.0     0.787729     0.204717     0.668083  Biso 1.000000     O
    O   1.0     0.278568     0.430380     0.309428  Biso 1.000000     O
    O   1.0     0.778576     0.430383     0.309431  Biso 1.000000     O
   Zn   1.0     0.374887     0.152817     0.820459  Biso 1.000000    Zn
   Zn   1.0     0.874895     0.152817     0.820460  Biso 1.000000    Zn
   Zn   1.0     0.375219     0.652888     0.679681  Biso 1.000000    Zn
   Zn   1.0     0.875228     0.652889     0.679680  Biso 1.000000    Zn
   Zn   1.0     0.125117     0.847180     0.179573  Biso 1.000000    Zn
   Zn   1.0     0.625125     0.847179     0.179574  Biso 1.000000    Zn
   Zn   1.0     0.124784     0.347106     0.320349  Biso 1.000000    Zn
   Zn   1.0     0.624793     0.347107     0.320349  Biso 1.000000    Zn
