#======================================================================

# CRYSTAL DATA

#----------------------------------------------------------------------

data_VESTA_phase_1


_pd_phase_name                         MOF
_cell_length_a                         16.61600
_cell_length_b                         16.61900
_cell_length_c                         26.21700
_cell_angle_alpha                      89.99800
_cell_angle_beta                       89.99800
_cell_angle_gamma                      119.99700
_symmetry_space_group_name_H-M         "P 1"
_symmetry_Int_Tables_number            1

loop_
_symmetry_equiv_pos_as_xyz
   "x, y, z"

loop_
   _atom_site_label
   _atom_site_occupancy
   _atom_site_fract_x
   _atom_site_fract_y
   _atom_site_fract_z
   _atom_site_adp_type
   _atom_site_B_iso_or_equiv
   _atom_site_type_symbol
    H   1.0     0.819637     0.224904     0.080341  Biso 1.000000     H
    H   1.0     0.674857     0.501089     0.071105  Biso 1.000000     H
    H   1.0     0.612015     0.599206     0.042541  Biso 1.000000     H
    H   1.0     0.574731     0.644755     0.201013  Biso 1.000000     H
    H   1.0     0.641308     0.544570     0.223799  Biso 1.000000     H
    H   1.0     0.582336     0.836470     0.982472  Biso 1.000000     H
    H   1.0     0.563559     0.976112     0.976593  Biso 1.000000     H
    H   1.0     0.443144     0.917101     0.126686  Biso 1.000000     H
    H   1.0     0.465826     0.782755     0.133924  Biso 1.000000     H
    H   1.0     0.529905     0.710606     0.138590  Biso 1.000000     H
    H   1.0     0.405053     0.179191     0.413550  Biso 1.000000     H
    H   1.0     0.825802     0.324629     0.404549  Biso 1.000000     H
    H   1.0     0.986678     0.387180     0.375922  Biso 1.000000     H
    H   1.0     0.069855     0.425339     0.534349  Biso 1.000000     H
    H   1.0     0.903103     0.358967     0.557205  Biso 1.000000     H
    H   1.0     0.253556     0.416353     0.315884  Biso 1.000000     H
    H   1.0     0.412207     0.435662     0.309904  Biso 1.000000     H
    H   1.0     0.473920     0.557129     0.459714  Biso 1.000000     H
    H   1.0     0.316698     0.534009     0.467046  Biso 1.000000     H
    H   1.0     0.180436     0.469835     0.471873  Biso 1.000000     H
    H   1.0     0.773793     0.593808     0.747585  Biso 1.000000     H
    H   1.0     0.498662     0.173872     0.737942  Biso 1.000000     H
    H   1.0     0.400515     0.013035     0.709268  Biso 1.000000     H
    H   1.0     0.355114     0.929767     0.867677  Biso 1.000000     H
    H   1.0     0.455213     0.096485     0.890579  Biso 1.000000     H
    H   1.0     0.162623     0.746331     0.649187  Biso 1.000000     H
    H   1.0     0.023341     0.587630     0.643244  Biso 1.000000     H
    H   1.0     0.083141     0.526135     0.793107  Biso 1.000000     H
    H   1.0     0.217223     0.683311     0.800377  Biso 1.000000     H
    H   1.0     0.289422     0.819246     0.805135  Biso 1.000000     H
    H   1.0     0.180270     0.775114     0.080330  Biso 1.000000     H
    H   1.0     0.325094     0.498970     0.071110  Biso 1.000000     H
    H   1.0     0.387928     0.400848     0.042547  Biso 1.000000     H
    H   1.0     0.425165     0.355255     0.201019  Biso 1.000000     H
    H   1.0     0.358594     0.455446     0.223804  Biso 1.000000     H
    H   1.0     0.417560     0.163552     0.982479  Biso 1.000000     H
    H   1.0     0.436362     0.023926     0.976599  Biso 1.000000     H
    H   1.0     0.556789     0.082939     0.126681  Biso 1.000000     H
    H   1.0     0.534089     0.217274     0.133921  Biso 1.000000     H
    H   1.0     0.470026     0.289433     0.138592  Biso 1.000000     H
    H   1.0     0.594895     0.820814     0.413539  Biso 1.000000     H
    H   1.0     0.174178     0.675395     0.404549  Biso 1.000000     H
    H   1.0     0.013307     0.612829     0.375924  Biso 1.000000     H
    H   1.0     0.930101     0.574643     0.534351  Biso 1.000000     H
    H   1.0     0.096850     0.641031     0.557206  Biso 1.000000     H
    H   1.0     0.746414     0.583601     0.315875  Biso 1.000000     H
    H   1.0     0.587762     0.564285     0.309893  Biso 1.000000     H
    H   1.0     0.526050     0.442876     0.459724  Biso 1.000000     H
    H   1.0     0.683275     0.466007     0.467059  Biso 1.000000     H
    H   1.0     0.819530     0.530154     0.471877  Biso 1.000000     H
    H   1.0     0.226114     0.406192     0.747594  Biso 1.000000     H
    H   1.0     0.501304     0.826154     0.737943  Biso 1.000000     H
    H   1.0     0.599466     0.986996     0.709268  Biso 1.000000     H
    H   1.0     0.644821     0.070236     0.867676  Biso 1.000000     H
    H   1.0     0.544709     0.903514     0.890579  Biso 1.000000     H
    H   1.0     0.837405     0.253688     0.649196  Biso 1.000000     H
    H   1.0     0.976690     0.412389     0.643254  Biso 1.000000     H
    H   1.0     0.916803     0.473884     0.793096  Biso 1.000000     H
    H   1.0     0.782716     0.316709     0.800366  Biso 1.000000     H
    H   1.0     0.710528     0.180769     0.805132  Biso 1.000000     H
    H   1.0     0.594007     0.774723     0.252304  Biso 1.000000     H
    H   1.0     0.173928     0.498522     0.262008  Biso 1.000000     H
    H   1.0     0.013066     0.400319     0.290678  Biso 1.000000     H
    H   1.0     0.929743     0.355365     0.132276  Biso 1.000000     H
    H   1.0     0.096497     0.455635     0.109375  Biso 1.000000     H
    H   1.0     0.746348     0.162938     0.350810  Biso 1.000000     H
    H   1.0     0.587771     0.023521     0.356810  Biso 1.000000     H
    H   1.0     0.525902     0.083131     0.206995  Biso 1.000000     H
    H   1.0     0.683054     0.217297     0.199640  Biso 1.000000     H
    H   1.0     0.819230     0.289361     0.194788  Biso 1.000000     H
    H   1.0     0.226203     0.820068     0.919050  Biso 1.000000     H
    H   1.0     0.501206     0.675098     0.928695  Biso 1.000000     H
    H   1.0     0.599295     0.612309     0.957365  Biso 1.000000     H
    H   1.0     0.644854     0.574639     0.798952  Biso 1.000000     H
    H   1.0     0.544767     0.641305     0.776054  Biso 1.000000     H
    H   1.0     0.837119     0.583442     0.017490  Biso 1.000000     H
    H   1.0     0.976531     0.564206     0.023418  Biso 1.000000     H
    H   1.0     0.916862     0.442987     0.873531  Biso 1.000000     H
    H   1.0     0.782672     0.465945     0.866265  Biso 1.000000     H
    H   1.0     0.710557     0.529800     0.861487  Biso 1.000000     H
    H   1.0     0.180165     0.405207     0.586330  Biso 1.000000     H
    H   1.0     0.325275     0.826189     0.595550  Biso 1.000000     H
    H   1.0     0.387871     0.987094     0.624117  Biso 1.000000     H
    H   1.0     0.425182     0.069956     0.465652  Biso 1.000000     H
    H   1.0     0.358870     0.903248     0.442859  Biso 1.000000     H
    H   1.0     0.417618     0.254081     0.684196  Biso 1.000000     H
    H   1.0     0.436449     0.412507     0.690103  Biso 1.000000     H
    H   1.0     0.556738     0.473883     0.539994  Biso 1.000000     H
    H   1.0     0.533955     0.316824     0.532719  Biso 1.000000     H
    H   1.0     0.469819     0.180579     0.528047  Biso 1.000000     H
    H   1.0     0.405942     0.225297     0.252314  Biso 1.000000     H
    H   1.0     0.825999     0.501488     0.262012  Biso 1.000000     H
    H   1.0     0.986858     0.599671     0.290678  Biso 1.000000     H
    H   1.0     0.070197     0.644665     0.132273  Biso 1.000000     H
    H   1.0     0.903446     0.544413     0.109377  Biso 1.000000     H
    H   1.0     0.253581     0.837011     0.350813  Biso 1.000000     H
    H   1.0     0.412157     0.976423     0.356816  Biso 1.000000     H
    H   1.0     0.474038     0.916900     0.206984  Biso 1.000000     H
    H   1.0     0.316884     0.782740     0.199626  Biso 1.000000     H
    H   1.0     0.180704     0.710661     0.194781  Biso 1.000000     H
    H   1.0     0.773726     0.179951     0.919063  Biso 1.000000     H
    H   1.0     0.498726     0.324905     0.928694  Biso 1.000000     H
    H   1.0     0.400646     0.387708     0.957366  Biso 1.000000     H
    H   1.0     0.355129     0.425421     0.798953  Biso 1.000000     H
    H   1.0     0.455205     0.358742     0.776054  Biso 1.000000     H
    H   1.0     0.162849     0.416608     0.017497  Biso 1.000000     H
    H   1.0     0.023426     0.435828     0.023424  Biso 1.000000     H
    H   1.0     0.083093     0.557032     0.873527  Biso 1.000000     H
    H   1.0     0.217290     0.534085     0.866262  Biso 1.000000     H
    H   1.0     0.289415     0.470248     0.861488  Biso 1.000000     H
    H   1.0     0.819769     0.594804     0.586321  Biso 1.000000     H
    H   1.0     0.674696     0.173832     0.595542  Biso 1.000000     H
    H   1.0     0.612105     0.012923     0.624112  Biso 1.000000     H
    H   1.0     0.574824     0.930084     0.465649  Biso 1.000000     H
    H   1.0     0.641129     0.096795     0.442852  Biso 1.000000     H
    H   1.0     0.582430     0.745956     0.684185  Biso 1.000000     H
    H   1.0     0.563595     0.587528     0.690090  Biso 1.000000     H
    H   1.0     0.443221     0.526146     0.540010  Biso 1.000000     H
    H   1.0     0.466006     0.683207     0.532736  Biso 1.000000     H
    H   1.0     0.530164     0.819450     0.528049  Biso 1.000000     H
    H   1.0     0.667247     0.332945     0.000086  Biso 1.000000     H
    H   1.0     0.665469     0.332971     0.333428  Biso 1.000000     H
    H   1.0     0.667198     0.334390     0.666544  Biso 1.000000     H
    H   1.0     0.332707     0.667109     0.000088  Biso 1.000000     H
    H   1.0     0.334479     0.667043     0.333436  Biso 1.000000     H
    H   1.0     0.332772     0.665616     0.666535  Biso 1.000000     H
    C   1.0     0.737264     0.324945     0.095809  Biso 1.000000     C
    C   1.0     0.743682     0.284778     0.045451  Biso 1.000000     C
    C   1.0     0.791231     0.235062     0.045197  Biso 1.000000     C
    C   1.0     0.652651     0.534321     0.099094  Biso 1.000000     C
    C   1.0     0.616626     0.589169     0.082927  Biso 1.000000     C
    C   1.0     0.587711     0.631463     0.119388  Biso 1.000000     C
    C   1.0     0.596729     0.614277     0.171243  Biso 1.000000     C
    C   1.0     0.633603     0.558582     0.184010  Biso 1.000000     C
    C   1.0     0.548565     0.723374     0.059627  Biso 1.000000     C
    C   1.0     0.527960     0.801321     0.058612  Biso 1.000000     C
    C   1.0     0.552020     0.855217     0.013906  Biso 1.000000     C
    C   1.0     0.540553     0.932448     0.010617  Biso 1.000000     C
    C   1.0     0.503911     0.957718     0.051904  Biso 1.000000     C
    C   1.0     0.476247     0.901059     0.095564  Biso 1.000000     C
    C   1.0     0.488618     0.824538     0.099305  Biso 1.000000     C
    C   1.0     0.587472     0.262564     0.429122  Biso 1.000000     C
    C   1.0     0.540889     0.255935     0.378740  Biso 1.000000     C
    C   1.0     0.443619     0.207847     0.378434  Biso 1.000000     C
    C   1.0     0.881292     0.346949     0.432516  Biso 1.000000     C
    C   1.0     0.972133     0.382826     0.416313  Biso 1.000000     C
    C   1.0     0.043421     0.411907     0.452743  Biso 1.000000     C
    C   1.0     0.017310     0.403188     0.504606  Biso 1.000000     C
    C   1.0     0.924751     0.366437     0.517411  Biso 1.000000     C
    C   1.0     0.174302     0.450496     0.392944  Biso 1.000000     C
    C   1.0     0.272955     0.471323     0.391876  Biso 1.000000     C
    C   1.0     0.302753     0.447077     0.347215  Biso 1.000000     C
    C   1.0     0.391575     0.458811     0.343869  Biso 1.000000     C
    C   1.0     0.453653     0.495893     0.385061  Biso 1.000000     C
    C   1.0     0.424681     0.523726     0.428667  Biso 1.000000     C
    C   1.0     0.335682     0.511124     0.432458  Biso 1.000000     C
    C   1.0     0.674372     0.411439     0.762525  Biso 1.000000     C
    C   1.0     0.714672     0.458433     0.712298  Biso 1.000000     C
    C   1.0     0.763987     0.555652     0.712332  Biso 1.000000     C
    C   1.0     0.465410     0.118373     0.765890  Biso 1.000000     C
    C   1.0     0.410570     0.027565     0.749662  Biso 1.000000     C
    C   1.0     0.368318     0.956282     0.786078  Biso 1.000000     C
    C   1.0     0.385546     0.982324     0.837948  Biso 1.000000     C
    C   1.0     0.441202     0.074856     0.850779  Biso 1.000000     C
    C   1.0     0.275957     0.825589     0.726246  Biso 1.000000     C
    C   1.0     0.198218     0.726960     0.725180  Biso 1.000000     C
    C   1.0     0.144179     0.697150     0.680523  Biso 1.000000     C
    C   1.0     0.067144     0.608330     0.677202  Biso 1.000000     C
    C   1.0     0.042203     0.546329     0.718422  Biso 1.000000     C
    C   1.0     0.098974     0.575328     0.762036  Biso 1.000000     C
    C   1.0     0.175341     0.664311     0.765794  Biso 1.000000     C
    C   1.0     0.262667     0.675096     0.095807  Biso 1.000000     C
    C   1.0     0.256262     0.715273     0.045450  Biso 1.000000     C
    C   1.0     0.208680     0.764958     0.045187  Biso 1.000000     C
    C   1.0     0.347287     0.465726     0.099099  Biso 1.000000     C
    C   1.0     0.383308     0.410877     0.082933  Biso 1.000000     C
    C   1.0     0.412206     0.368568     0.119394  Biso 1.000000     C
    C   1.0     0.403181     0.385744     0.171248  Biso 1.000000     C
    C   1.0     0.366308     0.441441     0.184016  Biso 1.000000     C
    C   1.0     0.451321     0.276640     0.059632  Biso 1.000000     C
    C   1.0     0.471947     0.198707     0.058616  Biso 1.000000     C
    C   1.0     0.447886     0.144813     0.013912  Biso 1.000000     C
    C   1.0     0.459371     0.067593     0.010619  Biso 1.000000     C
    C   1.0     0.496017     0.042321     0.051904  Biso 1.000000     C
    C   1.0     0.523681     0.098978     0.095561  Biso 1.000000     C
    C   1.0     0.511297     0.175491     0.099305  Biso 1.000000     C
    C   1.0     0.412482     0.737451     0.429123  Biso 1.000000     C
    C   1.0     0.459060     0.744075     0.378738  Biso 1.000000     C
    C   1.0     0.556328     0.792158     0.378426  Biso 1.000000     C
    C   1.0     0.118683     0.653068     0.432517  Biso 1.000000     C
    C   1.0     0.027843     0.617181     0.416315  Biso 1.000000     C
    C   1.0     0.956547     0.588091     0.452745  Biso 1.000000     C
    C   1.0     0.982651     0.596804     0.504608  Biso 1.000000     C
    C   1.0     0.075209     0.633565     0.517412  Biso 1.000000     C
    C   1.0     0.825672     0.549492     0.392946  Biso 1.000000     C
    C   1.0     0.727018     0.528662     0.391878  Biso 1.000000     C
    C   1.0     0.697221     0.552893     0.347213  Biso 1.000000     C
    C   1.0     0.608396     0.541150     0.343863  Biso 1.000000     C
    C   1.0     0.546319     0.504088     0.385061  Biso 1.000000     C
    C   1.0     0.575289     0.476269     0.428673  Biso 1.000000     C
    C   1.0     0.664290     0.488879     0.432466  Biso 1.000000     C
    C   1.0     0.325570     0.588561     0.762524  Biso 1.000000     C
    C   1.0     0.285275     0.541571     0.712298  Biso 1.000000     C
    C   1.0     0.235932     0.444351     0.712339  Biso 1.000000     C
    C   1.0     0.534548     0.881648     0.765890  Biso 1.000000     C
    C   1.0     0.589397     0.972459     0.749661  Biso 1.000000     C
    C   1.0     0.631637     0.043735     0.786078  Biso 1.000000     C
    C   1.0     0.614395     0.017683     0.837948  Biso 1.000000     C
    C   1.0     0.558730     0.925149     0.850779  Biso 1.000000     C
    C   1.0     0.724030     0.174430     0.726245  Biso 1.000000     C
    C   1.0     0.801766     0.273061     0.725178  Biso 1.000000     C
    C   1.0     0.855829     0.302873     0.680526  Biso 1.000000     C
    C   1.0     0.932869     0.391691     0.677207  Biso 1.000000     C
    C   1.0     0.957782     0.453691     0.718422  Biso 1.000000     C
    C   1.0     0.900987     0.424690     0.762030  Biso 1.000000     C
    C   1.0     0.824615     0.335708     0.765787  Biso 1.000000     C
    C   1.0     0.411600     0.674529     0.237447  Biso 1.000000     C
    C   1.0     0.458584     0.714995     0.287651  Biso 1.000000     C
    C   1.0     0.555828     0.764771     0.287569  Biso 1.000000     C
    C   1.0     0.118407     0.465395     0.234060  Biso 1.000000     C
    C   1.0     0.027583     0.410508     0.250285  Biso 1.000000     C
    C   1.0     0.956264     0.368382     0.213871  Biso 1.000000     C
    C   1.0     0.982321     0.385737     0.162001  Biso 1.000000     C
    C   1.0     0.074872     0.441465     0.149172  Biso 1.000000     C
    C   1.0     0.825468     0.276265     0.273720  Biso 1.000000     C
    C   1.0     0.726850     0.198436     0.274821  Biso 1.000000     C
    C   1.0     0.697124     0.144415     0.319487  Biso 1.000000     C
    C   1.0     0.608348     0.067291     0.322842  Biso 1.000000     C
    C   1.0     0.546257     0.042264     0.281656  Biso 1.000000     C
    C   1.0     0.575169     0.099024     0.238035  Biso 1.000000     C
    C   1.0     0.664119     0.175455     0.234236  Biso 1.000000     C
    C   1.0     0.325581     0.737053     0.904107  Biso 1.000000     C
    C   1.0     0.285293     0.743760     0.954333  Biso 1.000000     C
    C   1.0     0.235994     0.791693     0.954299  Biso 1.000000     C
    C   1.0     0.534472     0.652864     0.900746  Biso 1.000000     C
    C   1.0     0.589286     0.616850     0.916971  Biso 1.000000     C
    C   1.0     0.631566     0.587849     0.880552  Biso 1.000000     C
    C   1.0     0.614391     0.596734     0.828682  Biso 1.000000     C
    C   1.0     0.558752     0.633644     0.815853  Biso 1.000000     C
    C   1.0     0.723762     0.549304     0.940398  Biso 1.000000     C
    C   1.0     0.801591     0.528529     0.941472  Biso 1.000000     C
    C   1.0     0.855626     0.552773     0.986131  Biso 1.000000     C
    C   1.0     0.932736     0.541087     0.989443  Biso 1.000000     C
    C   1.0     0.957724     0.504060     0.948226  Biso 1.000000     C
    C   1.0     0.900978     0.476307     0.904602  Biso 1.000000     C
    C   1.0     0.824546     0.488836     0.900850  Biso 1.000000     C
    C   1.0     0.262682     0.587598     0.570832  Biso 1.000000     C
    C   1.0     0.256244     0.541023     0.621195  Biso 1.000000     C
    C   1.0     0.208613     0.443769     0.621467  Biso 1.000000     C
    C   1.0     0.347445     0.881623     0.567563  Biso 1.000000     C
    C   1.0     0.383331     0.972467     0.583731  Biso 1.000000     C
    C   1.0     0.412194     0.043673     0.547272  Biso 1.000000     C
    C   1.0     0.403235     0.017481     0.495418  Biso 1.000000     C
    C   1.0     0.366505     0.924942     0.482648  Biso 1.000000     C
    C   1.0     0.451311     0.174727     0.607026  Biso 1.000000     C
    C   1.0     0.471909     0.273276     0.608050  Biso 1.000000     C
    C   1.0     0.447914     0.303135     0.652772  Biso 1.000000     C
    C   1.0     0.459408     0.391843     0.656076  Biso 1.000000     C
    C   1.0     0.496057     0.453766     0.614794  Biso 1.000000     C
    C   1.0     0.523641     0.424737     0.571114  Biso 1.000000     C
    C   1.0     0.511235     0.335836     0.567358  Biso 1.000000     C
    C   1.0     0.588343     0.325497     0.237447  Biso 1.000000     C
    C   1.0     0.541362     0.285021     0.287653  Biso 1.000000     C
    C   1.0     0.444120     0.235242     0.287577  Biso 1.000000     C
    C   1.0     0.881523     0.534621     0.234062  Biso 1.000000     C
    C   1.0     0.972346     0.589496     0.250285  Biso 1.000000     C
    C   1.0     0.043670     0.631633     0.213870  Biso 1.000000     C
    C   1.0     0.017618     0.614291     0.162000  Biso 1.000000     C
    C   1.0     0.925067     0.558573     0.149174  Biso 1.000000     C
    C   1.0     0.174466     0.723720     0.273715  Biso 1.000000     C
    C   1.0     0.273083     0.801555     0.274814  Biso 1.000000     C
    C   1.0     0.302803     0.855553     0.319485  Biso 1.000000     C
    C   1.0     0.391580     0.932671     0.322844  Biso 1.000000     C
    C   1.0     0.453675     0.957726     0.281655  Biso 1.000000     C
    C   1.0     0.424769     0.900991     0.238028  Biso 1.000000     C
    C   1.0     0.335818     0.824565     0.234225  Biso 1.000000     C
    C   1.0     0.674353     0.262967     0.904111  Biso 1.000000     C
    C   1.0     0.714652     0.256279     0.954336  Biso 1.000000     C
    C   1.0     0.763929     0.208325     0.954310  Biso 1.000000     C
    C   1.0     0.465470     0.347152     0.900746  Biso 1.000000     C
    C   1.0     0.410665     0.383175     0.916972  Biso 1.000000     C
    C   1.0     0.368398     0.412191     0.880553  Biso 1.000000     C
    C   1.0     0.385581     0.403314     0.828682  Biso 1.000000     C
    C   1.0     0.441213     0.366396     0.815853  Biso 1.000000     C
    C   1.0     0.276203     0.450737     0.940400  Biso 1.000000     C
    C   1.0     0.198373     0.471511     0.941476  Biso 1.000000     C
    C   1.0     0.144334     0.447264     0.986136  Biso 1.000000     C
    C   1.0     0.067220     0.458944     0.989448  Biso 1.000000     C
    C   1.0     0.042228     0.495960     0.948226  Biso 1.000000     C
    C   1.0     0.098979     0.523718     0.904601  Biso 1.000000     C
    C   1.0     0.175414     0.511193     0.900849  Biso 1.000000     C
    C   1.0     0.737279     0.412415     0.570833  Biso 1.000000     C
    C   1.0     0.743711     0.458984     0.621195  Biso 1.000000     C
    C   1.0     0.791321     0.556239     0.621460  Biso 1.000000     C
    C   1.0     0.652531     0.118401     0.567556  Biso 1.000000     C
    C   1.0     0.616648     0.027556     0.583726  Biso 1.000000     C
    C   1.0     0.587795     0.956356     0.547269  Biso 1.000000     C
    C   1.0     0.596759     0.982554     0.495413  Biso 1.000000     C
    C   1.0     0.633489     0.075094     0.482641  Biso 1.000000     C
    C   1.0     0.548686     0.825303     0.607026  Biso 1.000000     C
    C   1.0     0.528091     0.726755     0.608051  Biso 1.000000     C
    C   1.0     0.552119     0.696903     0.652765  Biso 1.000000     C
    C   1.0     0.540615     0.608192     0.656071  Biso 1.000000     C
    C   1.0     0.503949     0.546266     0.614796  Biso 1.000000     C
    C   1.0     0.476336     0.575290     0.571125  Biso 1.000000     C
    C   1.0     0.488748     0.664194     0.567366  Biso 1.000000     C
    C   1.0     0.704903     0.294979    -0.000029  Biso 1.000000     C
    C   1.0     0.800929     0.198102    -0.000320  Biso 1.000000     C
    C   1.0     0.589844     0.294976     0.333288  Biso 1.000000     C
    C   1.0     0.396925     0.197877     0.332899  Biso 1.000000     C
    C   1.0     0.704901     0.410001     0.666670  Biso 1.000000     C
    C   1.0     0.801012     0.602881     0.666979  Biso 1.000000     C
    C   1.0     0.295024     0.705048    -0.000031  Biso 1.000000     C
    C   1.0     0.199006     0.801935    -0.000330  Biso 1.000000     C
    C   1.0     0.410104     0.705030     0.333290  Biso 1.000000     C
    C   1.0     0.603022     0.802138     0.332888  Biso 1.000000     C
    C   1.0     0.295051     0.590004     0.666667  Biso 1.000000     C
    C   1.0     0.198911     0.397123     0.666988  Biso 1.000000     C
    N   1.0     0.661828     0.518265     0.148804  Biso 1.000000     N
    N   1.0     0.553194     0.690060     0.107660  Biso 1.000000     N
    N   1.0     0.856142     0.338054     0.482233  Biso 1.000000     N
    N   1.0     0.136527     0.446331     0.440974  Biso 1.000000     N
    N   1.0     0.481453     0.143466     0.815615  Biso 1.000000     N
    N   1.0     0.309736     0.863214     0.774271  Biso 1.000000     N
    N   1.0     0.338099     0.481772     0.148809  Biso 1.000000     N
    N   1.0     0.446723     0.309971     0.107665  Biso 1.000000     N
    N   1.0     0.143826     0.661963     0.482234  Biso 1.000000     N
    N   1.0     0.863442     0.553662     0.440977  Biso 1.000000     N
    N   1.0     0.518488     0.856546     0.815615  Biso 1.000000     N
    N   1.0     0.690222     0.136804     0.774269  Biso 1.000000     N
    N   1.0     0.143503     0.481646     0.184336  Biso 1.000000     N
    N   1.0     0.863172     0.309791     0.225674  Biso 1.000000     N
    N   1.0     0.518471     0.661971     0.851019  Biso 1.000000     N
    N   1.0     0.690139     0.553340     0.892358  Biso 1.000000     N
    N   1.0     0.338360     0.856406     0.517851  Biso 1.000000     N
    N   1.0     0.446615     0.136768     0.558991  Biso 1.000000     N
    N   1.0     0.856431     0.518388     0.184339  Biso 1.000000     N
    N   1.0     0.136761     0.690221     0.225669  Biso 1.000000     N
    N   1.0     0.481479     0.338052     0.851019  Biso 1.000000     N
    N   1.0     0.309831     0.446706     0.892360  Biso 1.000000     N
    N   1.0     0.661618     0.143623     0.517844  Biso 1.000000     N
    N   1.0     0.553372     0.863260     0.558990  Biso 1.000000     N
    N   1.0     0.851985     0.146416    -0.000597  Biso 1.000000     N
    N   1.0     0.294173     0.146077     0.332604  Biso 1.000000     N
    N   1.0     0.852144     0.705612     0.667276  Biso 1.000000     N
    N   1.0     0.147902     0.853575    -0.000617  Biso 1.000000     N
    N   1.0     0.705773     0.853941     0.332592  Biso 1.000000     N
    N   1.0     0.147738     0.294391     0.667294  Biso 1.000000     N
    O   1.0     0.708167     0.383805     0.095677  Biso 1.000000     O
    O   1.0     0.761814     0.300660     0.135594  Biso 1.000000     O
    O   1.0     0.845265     0.100463     0.960601  Biso 1.000000     O
    O   1.0     0.564584     0.694073     0.019942  Biso 1.000000     O
    O   1.0     0.675481     0.291867     0.429040  Biso 1.000000     O
    O   1.0     0.538589     0.237960     0.468891  Biso 1.000000     O
    O   1.0     0.254684     0.152391     0.293818  Biso 1.000000     O
    O   1.0     0.128793     0.434003     0.353297  Biso 1.000000     O
    O   1.0     0.615501     0.323521     0.762232  Biso 1.000000     O
    O   1.0     0.698476     0.459923     0.802444  Biso 1.000000     O
    O   1.0     0.898426     0.745816     0.628753  Biso 1.000000     O
    O   1.0     0.304749     0.871208     0.686618  Biso 1.000000     O
    O   1.0     0.291790     0.616256     0.095680  Biso 1.000000     O
    O   1.0     0.238109     0.699376     0.135591  Biso 1.000000     O
    O   1.0     0.154672     0.899575     0.960593  Biso 1.000000     O
    O   1.0     0.435233     0.305896     0.019951  Biso 1.000000     O
    O   1.0     0.324474     0.708152     0.429042  Biso 1.000000     O
    O   1.0     0.461362     0.762065     0.468889  Biso 1.000000     O
    O   1.0     0.745274     0.847617     0.293812  Biso 1.000000     O
    O   1.0     0.871189     0.565994     0.353299  Biso 1.000000     O
    O   1.0     0.384447     0.676478     0.762230  Biso 1.000000     O
    O   1.0     0.301459     0.540069     0.802443  Biso 1.000000     O
    O   1.0     0.101508     0.254194     0.628760  Biso 1.000000     O
    O   1.0     0.695255     0.128815     0.686619  Biso 1.000000     O
    O   1.0     0.323644     0.615729     0.237721  Biso 1.000000     O
    O   1.0     0.460131     0.698513     0.197540  Biso 1.000000     O
    O   1.0     0.745705     0.900402     0.371112  Biso 1.000000     O
    O   1.0     0.871022     0.305290     0.313353  Biso 1.000000     O
    O   1.0     0.384444     0.707981     0.904404  Biso 1.000000     O
    O   1.0     0.301504     0.761465     0.864184  Biso 1.000000     O
    O   1.0     0.101607     0.847488     0.037902  Biso 1.000000     O
    O   1.0     0.694806     0.565939     0.980025  Biso 1.000000     O
    O   1.0     0.292084     0.675615     0.570940  Biso 1.000000     O
    O   1.0     0.237878     0.538733     0.531063  Biso 1.000000     O
    O   1.0     0.154437     0.255154     0.706088  Biso 1.000000     O
    O   1.0     0.435357     0.129425     0.646714  Biso 1.000000     O
    O   1.0     0.676299     0.384293     0.237717  Biso 1.000000     O
    O   1.0     0.539813     0.301528     0.197543  Biso 1.000000     O
    O   1.0     0.254230     0.099638     0.371132  Biso 1.000000     O
    O   1.0     0.128912     0.694681     0.313351  Biso 1.000000     O
    O   1.0     0.615473     0.292017     0.904406  Biso 1.000000     O
    O   1.0     0.698442     0.238563     0.864190  Biso 1.000000     O
    O   1.0     0.898232     0.152455     0.037933  Biso 1.000000     O
    O   1.0     0.305150     0.434089     0.980026  Biso 1.000000     O
    O   1.0     0.707874     0.324398     0.570941  Biso 1.000000     O
    O   1.0     0.762089     0.461287     0.531064  Biso 1.000000     O
    O   1.0     0.845380     0.744839     0.706054  Biso 1.000000     O
    O   1.0     0.564698     0.870618     0.646711  Biso 1.000000     O
   Zn   1.0     0.718070     0.436141     0.166604  Biso 1.000000    Zn
   Zn   1.0     0.717779     0.281964     0.500015  Biso 1.000000    Zn
   Zn   1.0     0.563595     0.281809     0.833318  Biso 1.000000    Zn
   Zn   1.0     0.281864     0.563901     0.166606  Biso 1.000000    Zn
   Zn   1.0     0.282189     0.718065     0.500018  Biso 1.000000    Zn
   Zn   1.0     0.436340     0.718199     0.833316  Biso 1.000000    Zn
