#======================================================================

# CRYSTAL DATA

#----------------------------------------------------------------------

data_VESTA_phase_1


_pd_phase_name                         MOF
_cell_length_a                         12.81900
_cell_length_b                         14.25700
_cell_length_c                         20.17200
_cell_angle_alpha                      89.87200
_cell_angle_beta                       95.07800
_cell_angle_gamma                      90.12600
_symmetry_space_group_name_H-M         "P 1"
_symmetry_Int_Tables_number            1

loop_
_symmetry_equiv_pos_as_xyz
   "x, y, z"

loop_
   _atom_site_label
   _atom_site_occupancy
   _atom_site_fract_x
   _atom_site_fract_y
   _atom_site_fract_z
   _atom_site_adp_type
   _atom_site_B_iso_or_equiv
   _atom_site_type_symbol
    H   1.0     0.053982     0.301469     0.672765  Biso 1.000000     H
    H   1.0     0.554706     0.300684     0.672865  Biso 1.000000     H
    H   1.0     0.122098     0.208050     0.772457  Biso 1.000000     H
    H   1.0     0.623191     0.207393     0.772566  Biso 1.000000     H
    H   1.0     0.429123     0.323062     0.757525  Biso 1.000000     H
    H   1.0     0.929490     0.324198     0.758151  Biso 1.000000     H
    H   1.0     0.362645     0.412239     0.655947  Biso 1.000000     H
    H   1.0     0.862709     0.413222     0.656570  Biso 1.000000     H
    H   1.0     0.362889     0.370812     0.964423  Biso 1.000000     H
    H   1.0     0.861532     0.370597     0.964684  Biso 1.000000     H
    H   1.0     0.068172     0.466574     0.025363  Biso 1.000000     H
    H   1.0     0.567015     0.466286     0.025922  Biso 1.000000     H
    H   1.0     0.102074     0.645018     0.462018  Biso 1.000000     H
    H   1.0     0.601446     0.642212     0.461803  Biso 1.000000     H
    H   1.0     0.419136     0.553360     0.608945  Biso 1.000000     H
    H   1.0     0.919146     0.553043     0.608571  Biso 1.000000     H
    H   1.0     0.444833     0.803668     0.826584  Biso 1.000000     H
    H   1.0     0.944762     0.802747     0.827195  Biso 1.000000     H
    H   1.0     0.376959     0.710923     0.726630  Biso 1.000000     H
    H   1.0     0.877064     0.709382     0.727522  Biso 1.000000     H
    H   1.0     0.069714     0.824032     0.741728  Biso 1.000000     H
    H   1.0     0.570024     0.823489     0.741511  Biso 1.000000     H
    H   1.0     0.135892     0.912307     0.843642  Biso 1.000000     H
    H   1.0     0.636085     0.912703     0.843028  Biso 1.000000     H
    H   1.0     0.138339     0.868526     0.534991  Biso 1.000000     H
    H   1.0     0.637172     0.869388     0.535011  Biso 1.000000     H
    H   1.0     0.431656     0.969558     0.474229  Biso 1.000000     H
    H   1.0     0.930993     0.967894     0.473394  Biso 1.000000     H
    H   1.0     0.396963     0.143619     0.038079  Biso 1.000000     H
    H   1.0     0.897463     0.143411     0.037785  Biso 1.000000     H
    H   1.0     0.079792     0.051907     0.891066  Biso 1.000000     H
    H   1.0     0.579138     0.051791     0.891215  Biso 1.000000     H
    H   1.0     0.444269     0.698437     0.327332  Biso 1.000000     H
    H   1.0     0.944501     0.698863     0.327735  Biso 1.000000     H
    H   1.0     0.376330     0.791866     0.227590  Biso 1.000000     H
    H   1.0     0.876952     0.792442     0.227937  Biso 1.000000     H
    H   1.0     0.069329     0.676631     0.242153  Biso 1.000000     H
    H   1.0     0.569815     0.677171     0.241918  Biso 1.000000     H
    H   1.0     0.135600     0.587483     0.343804  Biso 1.000000     H
    H   1.0     0.635754     0.587708     0.343521  Biso 1.000000     H
    H   1.0     0.138200     0.629437     0.035216  Biso 1.000000     H
    H   1.0     0.636893     0.629161     0.035621  Biso 1.000000     H
    H   1.0     0.432803     0.533671     0.974151  Biso 1.000000     H
    H   1.0     0.931537     0.533469     0.974537  Biso 1.000000     H
    H   1.0     0.395759     0.354832     0.538072  Biso 1.000000     H
    H   1.0     0.896335     0.357718     0.538317  Biso 1.000000     H
    H   1.0     0.078677     0.446603     0.391188  Biso 1.000000     H
    H   1.0     0.578713     0.447055     0.391591  Biso 1.000000     H
    H   1.0     0.053986     0.196388     0.172919  Biso 1.000000     H
    H   1.0     0.553845     0.197179     0.172513  Biso 1.000000     H
    H   1.0     0.121363     0.289295     0.272922  Biso 1.000000     H
    H   1.0     0.621084     0.290510     0.272319  Biso 1.000000     H
    H   1.0     0.428791     0.176240     0.258475  Biso 1.000000     H
    H   1.0     0.928620     0.177492     0.258301  Biso 1.000000     H
    H   1.0     0.363088     0.087722     0.156557  Biso 1.000000     H
    H   1.0     0.863017     0.088359     0.156633  Biso 1.000000     H
    H   1.0     0.359605     0.131455     0.465213  Biso 1.000000     H
    H   1.0     0.860701     0.130501     0.464690  Biso 1.000000     H
    H   1.0     0.066266     0.030411     0.525953  Biso 1.000000     H
    H   1.0     0.566899     0.032012     0.526331  Biso 1.000000     H
    H   1.0     0.102208     0.856372     0.962152  Biso 1.000000     H
    H   1.0     0.602315     0.856962     0.961823  Biso 1.000000     H
    H   1.0     0.420185     0.947977     0.108997  Biso 1.000000     H
    H   1.0     0.919722     0.948277     0.108611  Biso 1.000000     H
    C   1.0     0.163562     0.421342     0.599582  Biso 1.000000     C
    C   1.0     0.663909     0.421180     0.599810  Biso 1.000000     C
    C   1.0     0.203680     0.363370     0.658334  Biso 1.000000     C
    C   1.0     0.704068     0.363418     0.658671  Biso 1.000000     C
    C   1.0     0.136254     0.305325     0.691324  Biso 1.000000     C
    C   1.0     0.636900     0.304972     0.691547  Biso 1.000000     C
    C   1.0     0.174202     0.253170     0.746758  Biso 1.000000     C
    C   1.0     0.675056     0.252885     0.746972  Biso 1.000000     C
    C   1.0     0.280034     0.259617     0.770962  Biso 1.000000     C
    C   1.0     0.780789     0.259855     0.771309  Biso 1.000000     C
    C   1.0     0.347492     0.317565     0.737929  Biso 1.000000     C
    C   1.0     0.847954     0.318284     0.738435  Biso 1.000000     C
    C   1.0     0.309985     0.367871     0.681748  Biso 1.000000     C
    C   1.0     0.810262     0.368511     0.682268  Biso 1.000000     C
    C   1.0     0.321191     0.207898     0.832776  Biso 1.000000     C
    C   1.0     0.822212     0.208040     0.833028  Biso 1.000000     C
    C   1.0     0.167476     0.310997     0.985733  Biso 1.000000     C
    C   1.0     0.665989     0.310874     0.985843  Biso 1.000000     C
    C   1.0     0.210650     0.408422     0.994098  Biso 1.000000     C
    C   1.0     0.709342     0.408213     0.994414  Biso 1.000000     C
    C   1.0     0.313932     0.427391     0.980132  Biso 1.000000     C
    C   1.0     0.812625     0.427192     0.980441  Biso 1.000000     C
    C   1.0     0.147792     0.481863     0.013895  Biso 1.000000     C
    C   1.0     0.646563     0.481615     0.014336  Biso 1.000000     C
    C   1.0     0.334786     0.921397     0.900227  Biso 1.000000     C
    C   1.0     0.834753     0.921509     0.900169  Biso 1.000000     C
    C   1.0     0.294912     0.864284     0.841174  Biso 1.000000     C
    C   1.0     0.794966     0.864062     0.841199  Biso 1.000000     C
    C   1.0     0.362562     0.807181     0.808010  Biso 1.000000     C
    C   1.0     0.862579     0.806411     0.808433  Biso 1.000000     C
    C   1.0     0.324775     0.755457     0.752437  Biso 1.000000     C
    C   1.0     0.824883     0.754292     0.753032  Biso 1.000000     C
    C   1.0     0.218909     0.761494     0.728317  Biso 1.000000     C
    C   1.0     0.719120     0.760385     0.728657  Biso 1.000000     C
    C   1.0     0.151316     0.818773     0.761380  Biso 1.000000     C
    C   1.0     0.651544     0.818169     0.761333  Biso 1.000000     C
    C   1.0     0.188635     0.868550     0.817729  Biso 1.000000     C
    C   1.0     0.688807     0.868460     0.817472  Biso 1.000000     C
    C   1.0     0.177662     0.709936     0.666575  Biso 1.000000     C
    C   1.0     0.678203     0.708392     0.667028  Biso 1.000000     C
    C   1.0     0.334107     0.811828     0.513394  Biso 1.000000     C
    C   1.0     0.832452     0.811487     0.513156  Biso 1.000000     C
    C   1.0     0.290029     0.908827     0.505435  Biso 1.000000     C
    C   1.0     0.788968     0.908553     0.505023  Biso 1.000000     C
    C   1.0     0.186516     0.926063     0.519467  Biso 1.000000     C
    C   1.0     0.685820     0.926534     0.519406  Biso 1.000000     C
    C   1.0     0.351914     0.983457     0.485882  Biso 1.000000     C
    C   1.0     0.851538     0.982570     0.485273  Biso 1.000000     C
    C   1.0     0.334493     0.578572     0.400429  Biso 1.000000     C
    C   1.0     0.834384     0.578832     0.400414  Biso 1.000000     C
    C   1.0     0.294542     0.636463     0.341602  Biso 1.000000     C
    C   1.0     0.794667     0.636870     0.341642  Biso 1.000000     C
    C   1.0     0.362036     0.694539     0.308685  Biso 1.000000     C
    C   1.0     0.862344     0.694993     0.308921  Biso 1.000000     C
    C   1.0     0.324193     0.746687     0.253219  Biso 1.000000     C
    C   1.0     0.824720     0.747247     0.253475  Biso 1.000000     C
    C   1.0     0.218413     0.740196     0.228907  Biso 1.000000     C
    C   1.0     0.719019     0.740736     0.229014  Biso 1.000000     C
    C   1.0     0.150908     0.682178     0.261847  Biso 1.000000     C
    C   1.0     0.651323     0.682681     0.261763  Biso 1.000000     C
    C   1.0     0.188295     0.631895     0.318063  Biso 1.000000     C
    C   1.0     0.688515     0.632237     0.317927  Biso 1.000000     C
    C   1.0     0.177314     0.791940     0.167075  Biso 1.000000     C
    C   1.0     0.678154     0.792607     0.167251  Biso 1.000000     C
    C   1.0     0.333795     0.689107     0.014134  Biso 1.000000     C
    C   1.0     0.832288     0.689021     0.014264  Biso 1.000000     C
    C   1.0     0.290443     0.591772     0.005589  Biso 1.000000     C
    C   1.0     0.789100     0.591593     0.005882  Biso 1.000000     C
    C   1.0     0.187121     0.572828     0.019496  Biso 1.000000     C
    C   1.0     0.685853     0.572589     0.019903  Biso 1.000000     C
    C   1.0     0.353232     0.518359     0.985697  Biso 1.000000     C
    C   1.0     0.851943     0.518162     0.986051  Biso 1.000000     C
    C   1.0     0.164338     0.078391     0.099699  Biso 1.000000     C
    C   1.0     0.664356     0.078791     0.099613  Biso 1.000000     C
    C   1.0     0.204027     0.135760     0.158678  Biso 1.000000     C
    C   1.0     0.703921     0.136401     0.158526  Biso 1.000000     C
    C   1.0     0.136183     0.192899     0.191664  Biso 1.000000     C
    C   1.0     0.636032     0.193768     0.191295  Biso 1.000000     C
    C   1.0     0.173693     0.244759     0.247230  Biso 1.000000     C
    C   1.0     0.673458     0.245838     0.246776  Biso 1.000000     C
    C   1.0     0.279446     0.238695     0.271586  Biso 1.000000     C
    C   1.0     0.779221     0.240000     0.271181  Biso 1.000000     C
    C   1.0     0.347265     0.181466     0.238659  Biso 1.000000     C
    C   1.0     0.847092     0.182575     0.238458  Biso 1.000000     C
    C   1.0     0.310212     0.131533     0.182327  Biso 1.000000     C
    C   1.0     0.810101     0.132349     0.182233  Biso 1.000000     C
    C   1.0     0.320422     0.290257     0.333372  Biso 1.000000     C
    C   1.0     0.819828     0.291768     0.332962  Biso 1.000000     C
    C   1.0     0.163788     0.188143     0.486712  Biso 1.000000     C
    C   1.0     0.665440     0.188427     0.486707  Biso 1.000000     C
    C   1.0     0.207885     0.091150     0.494727  Biso 1.000000     C
    C   1.0     0.708920     0.091346     0.494721  Biso 1.000000     C
    C   1.0     0.311410     0.073917     0.480717  Biso 1.000000     C
    C   1.0     0.812056     0.073360     0.480308  Biso 1.000000     C
    C   1.0     0.146009     0.016522     0.514297  Biso 1.000000     C
    C   1.0     0.646345     0.017323     0.514448  Biso 1.000000     C
    O   1.0     0.231845     0.456724     0.563448  Biso 1.000000     O
    O   1.0     0.732399     0.456510     0.563773  Biso 1.000000     O
    O   1.0     0.065345     0.432678     0.588256  Biso 1.000000     O
    O   1.0     0.565627     0.432193     0.588395  Biso 1.000000     O
    O   1.0     0.415218     0.229794     0.855097  Biso 1.000000     O
    O   1.0     0.916182     0.230135     0.855325  Biso 1.000000     O
    O   1.0     0.262403     0.148559     0.857947  Biso 1.000000     O
    O   1.0     0.763697     0.148417     0.858107  Biso 1.000000     O
    O   1.0     0.231054     0.243200     0.988978  Biso 1.000000     O
    O   1.0     0.729423     0.242999     0.989022  Biso 1.000000     O
    O   1.0     0.066905     0.304700     0.975115  Biso 1.000000     O
    O   1.0     0.565389     0.304734     0.975157  Biso 1.000000     O
    O   1.0     0.098808     0.620207     0.506919  Biso 1.000000     O
    O   1.0     0.598412     0.617984     0.506883  Biso 1.000000     O
    O   1.0     0.409793     0.583618     0.565422  Biso 1.000000     O
    O   1.0     0.909849     0.583791     0.565225  Biso 1.000000     O
    O   1.0     0.266342     0.955272     0.936707  Biso 1.000000     O
    O   1.0     0.766065     0.955458     0.936465  Biso 1.000000     O
    O   1.0     0.432893     0.933729     0.911438  Biso 1.000000     O
    O   1.0     0.932859     0.933808     0.911404  Biso 1.000000     O
    O   1.0     0.083719     0.731887     0.644269  Biso 1.000000     O
    O   1.0     0.583543     0.728486     0.645101  Biso 1.000000     O
    O   1.0     0.236171     0.650635     0.641571  Biso 1.000000     O
    O   1.0     0.737857     0.650454     0.641629  Biso 1.000000     O
    O   1.0     0.271060     0.743432     0.508833  Biso 1.000000     O
    O   1.0     0.769210     0.743204     0.508908  Biso 1.000000     O
    O   1.0     0.434617     0.806450     0.525061  Biso 1.000000     O
    O   1.0     0.932930     0.806154     0.524735  Biso 1.000000     O
    O   1.0     0.400370     0.118728     0.993303  Biso 1.000000     O
    O   1.0     0.900730     0.118821     0.992912  Biso 1.000000     O
    O   1.0     0.089577     0.082453     0.934380  Biso 1.000000     O
    O   1.0     0.588979     0.082660     0.934411  Biso 1.000000     O
    O   1.0     0.266100     0.543244     0.436508  Biso 1.000000     O
    O   1.0     0.765716     0.543485     0.436293  Biso 1.000000     O
    O   1.0     0.432701     0.567233     0.411866  Biso 1.000000     O
    O   1.0     0.932632     0.567644     0.411881  Biso 1.000000     O
    O   1.0     0.083338     0.769972     0.144721  Biso 1.000000     O
    O   1.0     0.583924     0.771209     0.145040  Biso 1.000000     O
    O   1.0     0.236024     0.851404     0.141987  Biso 1.000000     O
    O   1.0     0.737376     0.851444     0.141960  Biso 1.000000     O
    O   1.0     0.270359     0.756983     0.010912  Biso 1.000000     O
    O   1.0     0.768748     0.756837     0.011023  Biso 1.000000     O
    O   1.0     0.434384     0.695256     0.024867  Biso 1.000000     O
    O   1.0     0.932880     0.695278     0.024851  Biso 1.000000     O
    O   1.0     0.399112     0.379731     0.493202  Biso 1.000000     O
    O   1.0     0.899467     0.381945     0.493244  Biso 1.000000     O
    O   1.0     0.088110     0.416302     0.434692  Biso 1.000000     O
    O   1.0     0.588088     0.416233     0.434910  Biso 1.000000     O
    O   1.0     0.232889     0.044528     0.063290  Biso 1.000000     O
    O   1.0     0.733156     0.044808     0.063413  Biso 1.000000     O
    O   1.0     0.066240     0.066100     0.088473  Biso 1.000000     O
    O   1.0     0.566305     0.066189     0.088411  Biso 1.000000     O
    O   1.0     0.414336     0.268337     0.355757  Biso 1.000000     O
    O   1.0     0.914412     0.271584     0.354996  Biso 1.000000     O
    O   1.0     0.261698     0.349328     0.358430  Biso 1.000000     O
    O   1.0     0.760007     0.349539     0.358384  Biso 1.000000     O
    O   1.0     0.226822     0.256548     0.491241  Biso 1.000000     O
    O   1.0     0.728690     0.256697     0.491010  Biso 1.000000     O
    O   1.0     0.063289     0.193497     0.474984  Biso 1.000000     O
    O   1.0     0.564945     0.193803     0.475243  Biso 1.000000     O
    O   1.0     0.098875     0.881093     0.006983  Biso 1.000000     O
    O   1.0     0.598931     0.881643     0.006660  Biso 1.000000     O
    O   1.0     0.410193     0.917266     0.065747  Biso 1.000000     O
    O   1.0     0.909922     0.917533     0.065366  Biso 1.000000     O
   Zn   1.0     0.493376     0.193798     0.938685  Biso 1.000000    Zn
   Zn   1.0     0.994682     0.193816     0.938775  Biso 1.000000    Zn
   Zn   1.0     0.252496     0.605111     0.544193  Biso 1.000000    Zn
   Zn   1.0     0.751630     0.604789     0.544183  Biso 1.000000    Zn
   Zn   1.0     0.005097     0.695308     0.561028  Biso 1.000000    Zn
   Zn   1.0     0.506431     0.694825     0.560775  Biso 1.000000    Zn
   Zn   1.0     0.247496     0.103722     0.955683  Biso 1.000000    Zn
   Zn   1.0     0.746916     0.103797     0.955680  Biso 1.000000    Zn
   Zn   1.0     0.004975     0.806202     0.061218  Biso 1.000000    Zn
   Zn   1.0     0.506412     0.806275     0.061181  Biso 1.000000    Zn
   Zn   1.0     0.245390     0.394856     0.455820  Biso 1.000000    Zn
   Zn   1.0     0.746245     0.395174     0.455854  Biso 1.000000    Zn
   Zn   1.0     0.492787     0.304697     0.439036  Biso 1.000000    Zn
   Zn   1.0     0.991416     0.305131     0.439329  Biso 1.000000    Zn
   Zn   1.0     0.252629     0.896028     0.044365  Biso 1.000000    Zn
   Zn   1.0     0.751859     0.896421     0.044258  Biso 1.000000    Zn
   Zn   1.0     0.999802     0.501019     0.499961  Biso 1.000000    Zn
   Zn   1.0     0.498067     0.498860     0.500173  Biso 1.000000    Zn
   Zn   1.0    -0.000127    -0.000030    -0.000066  Biso 1.000000    Zn
   Zn   1.0     0.498721    -0.000013    -0.000025  Biso 1.000000    Zn
