#======================================================================

# CRYSTAL DATA

#----------------------------------------------------------------------

data_VESTA_phase_1


_pd_phase_name                         MOF
_cell_length_a                         14.82200
_cell_length_b                         18.11500
_cell_length_c                         18.11500
_cell_angle_alpha                      98.94200
_cell_angle_beta                       95.99000
_cell_angle_gamma                      84.00900
_symmetry_space_group_name_H-M         "P 1"
_symmetry_Int_Tables_number            1

loop_
_symmetry_equiv_pos_as_xyz
   "x, y, z"

loop_
   _atom_site_label
   _atom_site_occupancy
   _atom_site_fract_x
   _atom_site_fract_y
   _atom_site_fract_z
   _atom_site_adp_type
   _atom_site_B_iso_or_equiv
   _atom_site_type_symbol
    H   1.0     0.252853     0.269776     0.688503  Biso 1.000000     H
    H   1.0     0.752871     0.269785     0.688487  Biso 1.000000     H
    H   1.0     0.456609     0.715889     0.694510  Biso 1.000000     H
    H   1.0     0.956620     0.715891     0.694511  Biso 1.000000     H
    H   1.0     0.429330     0.036714     0.756327  Biso 1.000000     H
    H   1.0     0.929339     0.036728     0.756336  Biso 1.000000     H
    H   1.0     0.497156     0.688470     0.269784  Biso 1.000000     H
    H   1.0     0.997167     0.688477     0.269781  Biso 1.000000     H
    H   1.0     0.293429     0.694497     0.715905  Biso 1.000000     H
    H   1.0     0.793443     0.694495     0.715905  Biso 1.000000     H
    H   1.0     0.320698     0.756328     0.036728  Biso 1.000000     H
    H   1.0     0.820709     0.756326     0.036721  Biso 1.000000     H
    H   1.0     0.247167     0.730198     0.311513  Biso 1.000000     H
    H   1.0     0.747186     0.730197     0.311515  Biso 1.000000     H
    H   1.0     0.043410     0.284097     0.305495  Biso 1.000000     H
    H   1.0     0.543425     0.284083     0.305486  Biso 1.000000     H
    H   1.0     0.070696     0.963256     0.243670  Biso 1.000000     H
    H   1.0     0.570707     0.963251     0.243669  Biso 1.000000     H
    H   1.0     0.002877     0.311504     0.730223  Biso 1.000000     H
    H   1.0     0.502867     0.311510     0.730217  Biso 1.000000     H
    H   1.0     0.206591     0.305494     0.284111  Biso 1.000000     H
    H   1.0     0.706602     0.305481     0.284093  Biso 1.000000     H
    H   1.0     0.179319     0.243653     0.963288  Biso 1.000000     H
    H   1.0     0.679341     0.243648     0.963265  Biso 1.000000     H
    C   1.0     0.291316     0.218748     0.703402  Biso 1.000000     C
    C   1.0     0.791330     0.218757     0.703394  Biso 1.000000     C
    C   1.0     0.344424     0.087349     0.669425  Biso 1.000000     C
    C   1.0     0.844436     0.087355     0.669428  Biso 1.000000     C
    C   1.0     0.355813     0.015535     0.614890  Biso 1.000000     C
    C   1.0     0.855825     0.015541     0.614893  Biso 1.000000     C
    C   1.0     0.075735     0.753794     0.658709  Biso 1.000000     C
    C   1.0     0.575750     0.753792     0.658708  Biso 1.000000     C
    C   1.0     0.293375     0.153328     0.651060  Biso 1.000000     C
    C   1.0     0.793389     0.153334     0.651057  Biso 1.000000     C
    C   1.0     0.030663     0.712005     0.699615  Biso 1.000000     C
    C   1.0     0.530677     0.712004     0.699615  Biso 1.000000     C
    C   1.0     0.171365     0.748064     0.665474  Biso 1.000000     C
    C   1.0     0.671380     0.748062     0.665474  Biso 1.000000     C
    C   1.0     0.223447     0.792346     0.624651  Biso 1.000000     C
    C   1.0     0.723461     0.792347     0.624655  Biso 1.000000     C
    C   1.0     0.513474     0.802908     0.612108  Biso 1.000000     C
    C   1.0     0.000000     0.802910     0.612108  Biso 1.000000     C
    C   1.0     0.236877     0.154471     0.577742  Biso 1.000000     C
    C   1.0     0.736897     0.154472     0.577736  Biso 1.000000     C
    C   1.0     0.390442     0.087361     0.740864  Biso 1.000000     C
    C   1.0     0.890457     0.087375     0.740866  Biso 1.000000     C
    C   1.0     0.336317     0.218233     0.775113  Biso 1.000000     C
    C   1.0     0.836334     0.218249     0.775105  Biso 1.000000     C
    C   1.0     0.386095     0.152147     0.793764  Biso 1.000000     C
    C   1.0     0.886106     0.152164     0.793763  Biso 1.000000     C
    C   1.0     0.328196     0.285750     0.830821  Biso 1.000000     C
    C   1.0     0.828208     0.285771     0.830807  Biso 1.000000     C
    C   1.0     0.436279     0.150155     0.867892  Biso 1.000000     C
    C   1.0     0.936291     0.150181     0.867891  Biso 1.000000     C
    C   1.0     0.458700     0.703377     0.218755  Biso 1.000000     C
    C   1.0     0.958710     0.703381     0.218751  Biso 1.000000     C
    C   1.0     0.405593     0.669419     0.087353  Biso 1.000000     C
    C   1.0     0.905604     0.669419     0.087350  Biso 1.000000     C
    C   1.0     0.394221     0.614872     0.015547  Biso 1.000000     C
    C   1.0     0.894233     0.614871     0.015544  Biso 1.000000     C
    C   1.0     0.174288     0.658703     0.753817  Biso 1.000000     C
    C   1.0     0.674301     0.658702     0.753818  Biso 1.000000     C
    C   1.0     0.456639     0.651043     0.153330  Biso 1.000000     C
    C   1.0     0.956650     0.651045     0.153328  Biso 1.000000     C
    C   1.0     0.219360     0.699591     0.712009  Biso 1.000000     C
    C   1.0     0.719374     0.699588     0.712009  Biso 1.000000     C
    C   1.0     0.078658     0.665477     0.748094  Biso 1.000000     C
    C   1.0     0.578671     0.665476     0.748095  Biso 1.000000     C
    C   1.0     0.026575     0.624641     0.792363  Biso 1.000000     C
    C   1.0     0.526588     0.624639     0.792362  Biso 1.000000     C
    C   1.0     0.236567     0.612096     0.802926  Biso 1.000000     C
    C   1.0     0.736581     0.612094     0.802925  Biso 1.000000     C
    C   1.0     0.013119     0.577725     0.154470  Biso 1.000000     C
    C   1.0     0.513129     0.577720     0.154470  Biso 1.000000     C
    C   1.0     0.359579     0.740860     0.087376  Biso 1.000000     C
    C   1.0     0.859593     0.740860     0.087369  Biso 1.000000     C
    C   1.0     0.413703     0.775091     0.218252  Biso 1.000000     C
    C   1.0     0.913715     0.775095     0.218244  Biso 1.000000     C
    C   1.0     0.363932     0.793752     0.152168  Biso 1.000000     C
    C   1.0     0.863943     0.793753     0.152160  Biso 1.000000     C
    C   1.0     0.421820     0.830799     0.285770  Biso 1.000000     C
    C   1.0     0.921828     0.830805     0.285761  Biso 1.000000     C
    C   1.0     0.313745     0.867877     0.150176  Biso 1.000000     C
    C   1.0     0.813757     0.867879     0.150164  Biso 1.000000     C
    C   1.0     0.208706     0.781226     0.296609  Biso 1.000000     C
    C   1.0     0.708723     0.781224     0.296610  Biso 1.000000     C
    C   1.0     0.155599     0.912628     0.330578  Biso 1.000000     C
    C   1.0     0.655613     0.912625     0.330577  Biso 1.000000     C
    C   1.0     0.144210     0.984442     0.385113  Biso 1.000000     C
    C   1.0     0.644223     0.984440     0.385111  Biso 1.000000     C
    C   1.0     0.424284     0.246182     0.341291  Biso 1.000000     C
    C   1.0     0.924296     0.246190     0.341295  Biso 1.000000     C
    C   1.0     0.206647     0.846648     0.348946  Biso 1.000000     C
    C   1.0     0.706662     0.846647     0.348946  Biso 1.000000     C
    C   1.0     0.469356     0.287980     0.300393  Biso 1.000000     C
    C   1.0     0.969367     0.287979     0.300387  Biso 1.000000     C
    C   1.0     0.328654     0.251914     0.334528  Biso 1.000000     C
    C   1.0     0.828666     0.251918     0.334526  Biso 1.000000     C
    C   1.0     0.276574     0.207644     0.375365  Biso 1.000000     C
    C   1.0     0.776585     0.207630     0.375343  Biso 1.000000     C
    C   1.0    -0.013455     0.197073     0.387895  Biso 1.000000     C
    C   1.0     0.486562     0.197074     0.387899  Biso 1.000000     C
    C   1.0     0.263142     0.845508     0.422265  Biso 1.000000     C
    C   1.0     0.763156     0.845508     0.422266  Biso 1.000000     C
    C   1.0     0.109582     0.912610     0.259138  Biso 1.000000     C
    C   1.0     0.609595     0.912605     0.259137  Biso 1.000000     C
    C   1.0     0.163705     0.781736     0.224897  Biso 1.000000     C
    C   1.0     0.663722     0.781732     0.224898  Biso 1.000000     C
    C   1.0     0.113930     0.847821     0.206241  Biso 1.000000     C
    C   1.0     0.613944     0.847815     0.206241  Biso 1.000000     C
    C   1.0     0.171828     0.714214     0.169194  Biso 1.000000     C
    C   1.0     0.671846     0.714210     0.169196  Biso 1.000000     C
    C   1.0     0.063746     0.849806     0.132113  Biso 1.000000     C
    C   1.0     0.563759     0.849798     0.132114  Biso 1.000000     C
    C   1.0     0.041327     0.296598     0.781255  Biso 1.000000     C
    C   1.0     0.541327     0.296603     0.781245  Biso 1.000000     C
    C   1.0     0.094427     0.330560     0.912657  Biso 1.000000     C
    C   1.0     0.594440     0.330558     0.912646  Biso 1.000000     C
    C   1.0     0.105801     0.385110     0.984461  Biso 1.000000     C
    C   1.0     0.605813     0.385103     0.984454  Biso 1.000000     C
    C   1.0     0.325731     0.341285     0.246195  Biso 1.000000     C
    C   1.0     0.825742     0.341278     0.246183  Biso 1.000000     C
    C   1.0     0.043385     0.348934     0.846678  Biso 1.000000     C
    C   1.0     0.543390     0.348935     0.846671  Biso 1.000000     C
    C   1.0     0.280660     0.300390     0.287996  Biso 1.000000     C
    C   1.0     0.780671     0.300391     0.287992  Biso 1.000000     C
    C   1.0     0.421361     0.334509     0.251915  Biso 1.000000     C
    C   1.0     0.921372     0.334507     0.251908  Biso 1.000000     C
    C   1.0     0.473446     0.375327     0.207631  Biso 1.000000     C
    C   1.0     0.973456     0.375347     0.207644  Biso 1.000000     C
    C   1.0     0.263453     0.387884     0.197077  Biso 1.000000     C
    C   1.0     0.763461     0.387886     0.197076  Biso 1.000000     C
    C   1.0     0.486899     0.422257     0.845532  Biso 1.000000     C
    C   1.0     0.986924     0.422259     0.845536  Biso 1.000000     C
    C   1.0     0.140444     0.259120     0.912637  Biso 1.000000     C
    C   1.0     0.640454     0.259116     0.912620  Biso 1.000000     C
    C   1.0     0.086326     0.224885     0.781761  Biso 1.000000     C
    C   1.0     0.586324     0.224889     0.781745  Biso 1.000000     C
    C   1.0     0.136090     0.206225     0.847848  Biso 1.000000     C
    C   1.0     0.636101     0.206227     0.847826  Biso 1.000000     C
    C   1.0     0.078209     0.169174     0.714246  Biso 1.000000     C
    C   1.0     0.578209     0.169183     0.714224  Biso 1.000000     C
    C   1.0     0.186280     0.132101     0.849843  Biso 1.000000     C
    C   1.0     0.686290     0.132102     0.849813  Biso 1.000000     C
    O   1.0     0.307794     0.963509     0.625286  Biso 1.000000     O
    O   1.0     0.807805     0.963516     0.625291  Biso 1.000000     O
    O   1.0     0.366932     0.282369     0.902832  Biso 1.000000     O
    O   1.0     0.866944     0.282399     0.902820  Biso 1.000000     O
    O   1.0     0.475132     0.772337     0.549856  Biso 1.000000     O
    O   1.0     0.975138     0.772339     0.549858  Biso 1.000000     O
    O   1.0     0.211674     0.215443     0.553407  Biso 1.000000     O
    O   1.0     0.711686     0.215444     0.553402  Biso 1.000000     O
    O   1.0     0.487797     0.869775     0.640378  Biso 1.000000     O
    O   1.0     0.987809     0.869777     0.640378  Biso 1.000000     O
    O   1.0     0.414103     0.000000     0.568486  Biso 1.000000     O
    O   1.0     0.914116     0.000000     0.568489  Biso 1.000000     O
    O   1.0     0.183604     0.838274     0.583447  Biso 1.000000     O
    O   1.0     0.683618     0.838273     0.583449  Biso 1.000000     O
    O   1.0     0.214082     0.091124     0.540908  Biso 1.000000     O
    O   1.0     0.714100     0.091124     0.540905  Biso 1.000000     O
    O   1.0     0.311343     0.782009     0.633430  Biso 1.000000     O
    O   1.0     0.811358     0.782014     0.633437  Biso 1.000000     O
    O   1.0     0.287925     0.346519     0.822751  Biso 1.000000     O
    O   1.0     0.787941     0.346538     0.822727  Biso 1.000000     O
    O   1.0     0.429124     0.212197     0.921652  Biso 1.000000     O
    O   1.0     0.929132     0.212225     0.921648  Biso 1.000000     O
    O   1.0     0.488492     0.099072     0.887632  Biso 1.000000     O
    O   1.0     0.988506     0.099102     0.887637  Biso 1.000000     O
    O   1.0     0.442234     0.625279     0.963538  Biso 1.000000     O
    O   1.0     0.942246     0.625278     0.963534  Biso 1.000000     O
    O   1.0     0.383099     0.902819     0.282401  Biso 1.000000     O
    O   1.0     0.883110     0.902824     0.282388  Biso 1.000000     O
    O   1.0     0.274920     0.549847     0.772355  Biso 1.000000     O
    O   1.0     0.774935     0.549845     0.772355  Biso 1.000000     O
    O   1.0     0.038329     0.553392     0.215443  Biso 1.000000     O
    O   1.0     0.538342     0.553388     0.215442  Biso 1.000000     O
    O   1.0     0.262236     0.640364     0.869794  Biso 1.000000     O
    O   1.0     0.762248     0.640362     0.869794  Biso 1.000000     O
    O   1.0     0.335926     0.568475     0.000000  Biso 1.000000     O
    O   1.0     0.835940     0.568474     0.000000  Biso 1.000000     O
    O   1.0     0.066417     0.583443     0.838297  Biso 1.000000     O
    O   1.0     0.566429     0.583441     0.838297  Biso 1.000000     O
    O   1.0     0.035919     0.540893     0.091124  Biso 1.000000     O
    O   1.0     0.535929     0.540889     0.091123  Biso 1.000000     O
    O   1.0     0.438692     0.633441     0.782045  Biso 1.000000     O
    O   1.0     0.938704     0.633439     0.782042  Biso 1.000000     O
    O   1.0     0.462081     0.822710     0.346536  Biso 1.000000     O
    O   1.0     0.962088     0.822719     0.346529  Biso 1.000000     O
    O   1.0     0.320911     0.921627     0.212224  Biso 1.000000     O
    O   1.0     0.820921     0.921630     0.212211  Biso 1.000000     O
    O   1.0     0.261528     0.887627     0.099100  Biso 1.000000     O
    O   1.0     0.761542     0.887626     0.099087  Biso 1.000000     O
    O   1.0     0.192228     0.036469     0.374717  Biso 1.000000     O
    O   1.0     0.692243     0.036465     0.374715  Biso 1.000000     O
    O   1.0     0.133092     0.717589     0.097182  Biso 1.000000     O
    O   1.0     0.633105     0.717581     0.097184  Biso 1.000000     O
    O   1.0     0.024884     0.227644     0.450148  Biso 1.000000     O
    O   1.0     0.524909     0.227644     0.450150  Biso 1.000000     O
    O   1.0     0.288349     0.784536     0.446600  Biso 1.000000     O
    O   1.0     0.788363     0.784536     0.446602  Biso 1.000000     O
    O   1.0     0.012228     0.130208     0.359625  Biso 1.000000     O
    O   1.0     0.512237     0.130208     0.359627  Biso 1.000000     O
    O   1.0     0.085920    -0.009577     0.431517  Biso 1.000000     O
    O   1.0     0.585933    -0.009578     0.431516  Biso 1.000000     O
    O   1.0     0.316418     0.161706     0.416557  Biso 1.000000     O
    O   1.0     0.816430     0.161705     0.416551  Biso 1.000000     O
    O   1.0     0.285939     0.908855     0.459097  Biso 1.000000     O
    O   1.0     0.785949     0.908856     0.459099  Biso 1.000000     O
    O   1.0     0.188678     0.217971     0.366577  Biso 1.000000     O
    O   1.0     0.688688     0.217965     0.366564  Biso 1.000000     O
    O   1.0     0.212097     0.653447     0.177272  Biso 1.000000     O
    O   1.0     0.712118     0.653443     0.177274  Biso 1.000000     O
    O   1.0     0.070902     0.787762     0.078356  Biso 1.000000     O
    O   1.0     0.570915     0.787753     0.078357  Biso 1.000000     O
    O   1.0     0.011530     0.900886     0.112369  Biso 1.000000     O
    O   1.0     0.511542     0.900877     0.112369  Biso 1.000000     O
    O   1.0     0.057789     0.374701     0.036471  Biso 1.000000     O
    O   1.0     0.557796     0.374696     0.036461  Biso 1.000000     O
    O   1.0     0.116926     0.097154     0.717620  Biso 1.000000     O
    O   1.0     0.616938     0.097165     0.717586  Biso 1.000000     O
    O   1.0     0.225099     0.450132     0.227650  Biso 1.000000     O
    O   1.0     0.725099     0.450131     0.227647  Biso 1.000000     O
    O   1.0     0.461687     0.446592     0.784561  Biso 1.000000     O
    O   1.0     0.961706     0.446587     0.784563  Biso 1.000000     O
    O   1.0     0.237786     0.359616     0.130209  Biso 1.000000     O
    O   1.0     0.737800     0.359618     0.130206  Biso 1.000000     O
    O   1.0     0.164096     0.431506    -0.009569  Biso 1.000000     O
    O   1.0     0.664107     0.431501    -0.009574  Biso 1.000000     O
    O   1.0     0.433605     0.416537     0.161706  Biso 1.000000     O
    O   1.0     0.933617     0.416543     0.161707  Biso 1.000000     O
    O   1.0     0.464101     0.459087     0.908880  Biso 1.000000     O
    O   1.0     0.964117     0.459088     0.908882  Biso 1.000000     O
    O   1.0     0.061327     0.366546     0.217964  Biso 1.000000     O
    O   1.0     0.561341     0.366535     0.217957  Biso 1.000000     O
    O   1.0     0.037951     0.177260     0.653477  Biso 1.000000     O
    O   1.0     0.537943     0.177275     0.653459  Biso 1.000000     O
    O   1.0     0.179114     0.078350     0.787797  Biso 1.000000     O
    O   1.0     0.679125     0.078353     0.787764  Biso 1.000000     O
    O   1.0     0.238493     0.112353     0.900922  Biso 1.000000     O
    O   1.0     0.738510     0.112351     0.900886  Biso 1.000000     O
    K   1.0     0.393986     0.021735     0.414901  Biso 1.000000     K
    K   1.0     0.893998     0.021733     0.414902  Biso 1.000000     K
    K   1.0     0.356036     0.414891     0.021733  Biso 1.000000     K
    K   1.0     0.856050     0.414895     0.021737  Biso 1.000000     K
    K   1.0     0.106036     0.978247     0.585104  Biso 1.000000     K
    K   1.0     0.606049     0.978244     0.585098  Biso 1.000000     K
    K   1.0     0.143983     0.585085     0.978268  Biso 1.000000     K
    K   1.0     0.643997     0.585082     0.978267  Biso 1.000000     K
   In   1.0     0.350804     0.854272     0.559000  Biso 1.000000    In
   In   1.0     0.850813     0.854277     0.559004  Biso 1.000000    In
   In   1.0     0.399239     0.558994     0.854296  Biso 1.000000    In
   In   1.0     0.899255     0.558991     0.854294  Biso 1.000000    In
   In   1.0     0.149215     0.145708     0.441005  Biso 1.000000    In
   In   1.0     0.649234     0.145705     0.441000  Biso 1.000000    In
   In   1.0     0.100781     0.440990     0.145711  Biso 1.000000    In
   In   1.0     0.600787     0.440982     0.145702  Biso 1.000000    In
