#======================================================================

# CRYSTAL DATA

#----------------------------------------------------------------------

data_VESTA_phase_1


_pd_phase_name                         MOF
_cell_length_a                         19.31100
_cell_length_b                         14.87100
_cell_length_c                         15.41500
_cell_angle_alpha                      89.99600
_cell_angle_beta                       89.97200
_cell_angle_gamma                      89.96300
_symmetry_space_group_name_H-M         "P 1"
_symmetry_Int_Tables_number            1

loop_
_symmetry_equiv_pos_as_xyz
   "x, y, z"

loop_
   _atom_site_label
   _atom_site_occupancy
   _atom_site_fract_x
   _atom_site_fract_y
   _atom_site_fract_z
   _atom_site_adp_type
   _atom_site_B_iso_or_equiv
   _atom_site_type_symbol
    H   1.0     0.350967     0.696695     0.429183  Biso 1.000000     H
    H   1.0     0.850970     0.696697     0.429182  Biso 1.000000     H
    H   1.0     0.398982     0.905468     0.214400  Biso 1.000000     H
    H   1.0     0.898986     0.905467     0.214401  Biso 1.000000     H
    H   1.0     0.462438     0.679109     0.490338  Biso 1.000000     H
    H   1.0     0.962444     0.679109     0.490334  Biso 1.000000     H
    H   1.0     0.014565     0.817177     0.549723  Biso 1.000000     H
    H   1.0     0.514575     0.817177     0.549725  Biso 1.000000     H
    H   1.0     0.287915     0.969111     0.192240  Biso 1.000000     H
    H   1.0     0.787920     0.969113     0.192240  Biso 1.000000     H
    H   1.0     0.237764     0.045083     0.320551  Biso 1.000000     H
    H   1.0     0.737769     0.045086     0.320550  Biso 1.000000     H
    H   1.0     0.351017     0.303580     0.568888  Biso 1.000000     H
    H   1.0     0.851026     0.303584     0.568884  Biso 1.000000     H
    H   1.0     0.399040     0.093924     0.784315  Biso 1.000000     H
    H   1.0     0.899043     0.093926     0.784316  Biso 1.000000     H
    H   1.0     0.462168     0.320973     0.506999  Biso 1.000000     H
    H   1.0     0.962177     0.320974     0.506996  Biso 1.000000     H
    H   1.0     0.014243     0.182808     0.447358  Biso 1.000000     H
    H   1.0     0.514250     0.182810     0.447359  Biso 1.000000     H
    H   1.0     0.287847     0.030519     0.805967  Biso 1.000000     H
    H   1.0     0.787852     0.030518     0.805965  Biso 1.000000     H
    H   1.0     0.237965     0.955250     0.677414  Biso 1.000000     H
    H   1.0     0.737970     0.955251     0.677411  Biso 1.000000     H
    H   1.0     0.148833     0.803175     0.928943  Biso 1.000000     H
    H   1.0     0.648837     0.803173     0.928943  Biso 1.000000     H
    H   1.0     0.100868     0.594688     0.714537  Biso 1.000000     H
    H   1.0     0.600868     0.594691     0.714541  Biso 1.000000     H
    H   1.0     0.037447     0.820944     0.990378  Biso 1.000000     H
    H   1.0     0.537452     0.820944     0.990382  Biso 1.000000     H
    H   1.0     0.485212     0.683046     0.049985  Biso 1.000000     H
    H   1.0     0.985221     0.683043     0.049975  Biso 1.000000     H
    H   1.0     0.211844     0.530998     0.692200  Biso 1.000000     H
    H   1.0     0.711844     0.531005     0.692201  Biso 1.000000     H
    H   1.0     0.262039     0.454970     0.820441  Biso 1.000000     H
    H   1.0     0.762041     0.454972     0.820439  Biso 1.000000     H
    H   1.0     0.148853     0.196507     0.068975  Biso 1.000000     H
    H   1.0     0.648859     0.196507     0.068976  Biso 1.000000     H
    H   1.0     0.100730     0.406027     0.284405  Biso 1.000000     H
    H   1.0     0.600737     0.406026     0.284407  Biso 1.000000     H
    H   1.0     0.037709     0.179078     0.007170  Biso 1.000000     H
    H   1.0     0.537716     0.179077     0.007170  Biso 1.000000     H
    H   1.0     0.485732     0.317221     0.947391  Biso 1.000000     H
    H   1.0     0.985742     0.317221     0.947391  Biso 1.000000     H
    H   1.0     0.211926     0.469438     0.305876  Biso 1.000000     H
    H   1.0     0.711932     0.469437     0.305876  Biso 1.000000     H
    H   1.0     0.261743     0.544758     0.177239  Biso 1.000000     H
    H   1.0     0.761748     0.544757     0.177239  Biso 1.000000     H
    C   1.0     0.396665     0.736258     0.590633  Biso 1.000000     C
    C   1.0     0.896670     0.736259     0.590630  Biso 1.000000     C
    C   1.0     0.430319     0.739140     0.500571  Biso 1.000000     C
    C   1.0     0.930325     0.739141     0.500569  Biso 1.000000     C
    C   1.0     0.476829     0.823724     0.496234  Biso 1.000000     C
    C   1.0     0.976834     0.823726     0.496231  Biso 1.000000     C
    C   1.0     0.020312     0.821559     0.411990  Biso 1.000000     C
    C   1.0     0.520321     0.821559     0.411992  Biso 1.000000     C
    C   1.0     0.354842     0.076472     0.237761  Biso 1.000000     C
    C   1.0     0.854848     0.076473     0.237761  Biso 1.000000     C
    C   1.0     0.320304     0.984363     0.248875  Biso 1.000000     C
    C   1.0     0.820309     0.984365     0.248875  Biso 1.000000     C
    C   1.0     0.273919     0.988441     0.330770  Biso 1.000000     C
    C   1.0     0.773924     0.988444     0.330770  Biso 1.000000     C
    C   1.0     0.227915     0.903345     0.335113  Biso 1.000000     C
    C   1.0     0.727921     0.903347     0.335112  Biso 1.000000     C
    C   1.0     0.396466     0.263763     0.406832  Biso 1.000000     C
    C   1.0     0.896475     0.263761     0.406828  Biso 1.000000     C
    C   1.0     0.430096     0.260932     0.496932  Biso 1.000000     C
    C   1.0     0.930105     0.260933     0.496928  Biso 1.000000     C
    C   1.0     0.476673     0.176333     0.501087  Biso 1.000000     C
    C   1.0     0.976680     0.176332     0.501086  Biso 1.000000     C
    C   1.0     0.020425     0.178407     0.585052  Biso 1.000000     C
    C   1.0     0.520433     0.178406     0.585053  Biso 1.000000     C
    C   1.0     0.354932     0.923453     0.759965  Biso 1.000000     C
    C   1.0     0.854937     0.923453     0.759964  Biso 1.000000     C
    C   1.0     0.320355     0.015614     0.749291  Biso 1.000000     C
    C   1.0     0.820360     0.015614     0.749289  Biso 1.000000     C
    C   1.0     0.274081     0.011920     0.667370  Biso 1.000000     C
    C   1.0     0.774086     0.011921     0.667369  Biso 1.000000     C
    C   1.0     0.227959     0.096962     0.663242  Biso 1.000000     C
    C   1.0     0.727965     0.096963     0.663242  Biso 1.000000     C
    C   1.0     0.103221     0.763753     0.090568  Biso 1.000000     C
    C   1.0     0.603228     0.763755     0.090570  Biso 1.000000     C
    C   1.0     0.069516     0.760863     0.000569  Biso 1.000000     C
    C   1.0     0.569522     0.760863     0.000572  Biso 1.000000     C
    C   1.0     0.022929     0.676333     0.996462  Biso 1.000000     C
    C   1.0     0.522933     0.676334     0.996470  Biso 1.000000     C
    C   1.0     0.479403     0.678369     0.912283  Biso 1.000000     C
    C   1.0     0.979417     0.678373     0.912273  Biso 1.000000     C
    C   1.0     0.144979     0.423577     0.737824  Biso 1.000000     C
    C   1.0     0.644982     0.423580     0.737826  Biso 1.000000     C
    C   1.0     0.179483     0.515697     0.748890  Biso 1.000000     C
    C   1.0     0.679484     0.515701     0.748892  Biso 1.000000     C
    C   1.0     0.225898     0.511611     0.830691  Biso 1.000000     C
    C   1.0     0.725900     0.511614     0.830691  Biso 1.000000     C
    C   1.0     0.271926     0.596675     0.834973  Biso 1.000000     C
    C   1.0     0.771930     0.596677     0.834975  Biso 1.000000     C
    C   1.0     0.103458     0.236266     0.906976  Biso 1.000000     C
    C   1.0     0.603465     0.236264     0.906978  Biso 1.000000     C
    C   1.0     0.069787     0.239111     0.997099  Biso 1.000000     C
    C   1.0     0.569794     0.239111     0.997101  Biso 1.000000     C
    C   1.0     0.023215     0.323720     0.001145  Biso 1.000000     C
    C   1.0     0.523220     0.323717     0.001146  Biso 1.000000     C
    C   1.0     0.479267     0.321707     0.085006  Biso 1.000000     C
    C   1.0     0.979277     0.321710     0.085005  Biso 1.000000     C
    C   1.0     0.144847     0.576517     0.259995  Biso 1.000000     C
    C   1.0     0.644853     0.576516     0.259997  Biso 1.000000     C
    C   1.0     0.179391     0.484366     0.249270  Biso 1.000000     C
    C   1.0     0.679397     0.484365     0.249270  Biso 1.000000     C
    C   1.0     0.225636     0.488090     0.167274  Biso 1.000000     C
    C   1.0     0.725641     0.488089     0.167274  Biso 1.000000     C
    C   1.0     0.271757     0.403052     0.163147  Biso 1.000000     C
    C   1.0     0.771763     0.403052     0.163146  Biso 1.000000     C
    O   1.0     0.336221     0.769525     0.600682  Biso 1.000000     O
    O   1.0     0.836227     0.769525     0.600680  Biso 1.000000     O
    O   1.0     0.433191     0.703645     0.651256  Biso 1.000000     O
    O   1.0     0.933197     0.703645     0.651253  Biso 1.000000     O
    O   1.0     0.380331     0.749932     0.431984  Biso 1.000000     O
    O   1.0     0.880337     0.749932     0.431981  Biso 1.000000     O
    O   1.0     0.436604     0.902436     0.505025  Biso 1.000000     O
    O   1.0     0.936609     0.902438     0.505022  Biso 1.000000     O
    O   1.0     0.020214     0.887919     0.359676  Biso 1.000000     O
    O   1.0     0.520224     0.887918     0.359678  Biso 1.000000     O
    O   1.0     0.056730     0.751626     0.400529  Biso 1.000000     O
    O   1.0     0.556739     0.751625     0.400531  Biso 1.000000     O
    O   1.0     0.415159     0.089572     0.269541  Biso 1.000000     O
    O   1.0     0.915166     0.089572     0.269540  Biso 1.000000     O
    O   1.0     0.319409     0.136541     0.200122  Biso 1.000000     O
    O   1.0     0.819416     0.136542     0.200121  Biso 1.000000     O
    O   1.0     0.369562     0.913570     0.265253  Biso 1.000000     O
    O   1.0     0.869566     0.913571     0.265253  Biso 1.000000     O
    O   1.0     0.314685     0.001370     0.405542  Biso 1.000000     O
    O   1.0     0.814690     0.001374     0.405542  Biso 1.000000     O
    O   1.0     0.228312     0.852353     0.401447  Biso 1.000000     O
    O   1.0     0.728319     0.852355     0.401447  Biso 1.000000     O
    O   1.0     0.189557     0.890827     0.269527  Biso 1.000000     O
    O   1.0     0.689564     0.890828     0.269527  Biso 1.000000     O
    O   1.0     0.336119     0.230411     0.396531  Biso 1.000000     O
    O   1.0     0.836127     0.230412     0.396530  Biso 1.000000     O
    O   1.0     0.433113     0.296323     0.346291  Biso 1.000000     O
    O   1.0     0.933120     0.296322     0.346288  Biso 1.000000     O
    O   1.0     0.380261     0.250190     0.565829  Biso 1.000000     O
    O   1.0     0.880270     0.250193     0.565825  Biso 1.000000     O
    O   1.0     0.436396     0.097706     0.492575  Biso 1.000000     O
    O   1.0     0.936403     0.097706     0.492575  Biso 1.000000     O
    O   1.0     0.020459     0.111994     0.637302  Biso 1.000000     O
    O   1.0     0.520470     0.111993     0.637301  Biso 1.000000     O
    O   1.0     0.056893     0.248253     0.596367  Biso 1.000000     O
    O   1.0     0.556900     0.248254     0.596368  Biso 1.000000     O
    O   1.0     0.415509     0.910631     0.728769  Biso 1.000000     O
    O   1.0     0.915513     0.910631     0.728765  Biso 1.000000     O
    O   1.0     0.319227     0.863121     0.796728  Biso 1.000000     O
    O   1.0     0.819234     0.863120     0.796728  Biso 1.000000     O
    O   1.0     0.369613     0.086422     0.733425  Biso 1.000000     O
    O   1.0     0.869618     0.086422     0.733425  Biso 1.000000     O
    O   1.0     0.314917     0.999189     0.592546  Biso 1.000000     O
    O   1.0     0.814923     0.999190     0.592545  Biso 1.000000     O
    O   1.0     0.228055     0.147839     0.596780  Biso 1.000000     O
    O   1.0     0.728062     0.147840     0.596780  Biso 1.000000     O
    O   1.0     0.189746     0.109503     0.729026  Biso 1.000000     O
    O   1.0     0.689751     0.109504     0.729025  Biso 1.000000     O
    O   1.0     0.163670     0.730491     0.100545  Biso 1.000000     O
    O   1.0     0.663677     0.730492     0.100546  Biso 1.000000     O
    O   1.0     0.066732     0.796414     0.151237  Biso 1.000000     O
    O   1.0     0.566739     0.796415     0.151240  Biso 1.000000     O
    O   1.0     0.119449     0.749964     0.931903  Biso 1.000000     O
    O   1.0     0.619453     0.749961     0.931906  Biso 1.000000     O
    O   1.0     0.063111     0.597601     0.000000  Biso 1.000000     O
    O   1.0     0.563115     0.597602     0.000000  Biso 1.000000     O
    O   1.0     0.479264     0.611758     0.860258  Biso 1.000000     O
    O   1.0     0.979288     0.611771     0.860238  Biso 1.000000     O
    O   1.0     0.443180     0.748425     0.900582  Biso 1.000000     O
    O   1.0     0.943187     0.748426     0.900580  Biso 1.000000     O
    O   1.0     0.084666     0.410454     0.769681  Biso 1.000000     O
    O   1.0     0.584669     0.410455     0.769683  Biso 1.000000     O
    O   1.0     0.180442     0.363520     0.700162  Biso 1.000000     O
    O   1.0     0.680446     0.363524     0.700164  Biso 1.000000     O
    O   1.0     0.130212     0.586458     0.765405  Biso 1.000000     O
    O   1.0     0.630211     0.586460     0.765410  Biso 1.000000     O
    O   1.0     0.185139     0.498704     0.905526  Biso 1.000000     O
    O   1.0     0.685142     0.498706     0.905527  Biso 1.000000     O
    O   1.0     0.271510     0.647690     0.901284  Biso 1.000000     O
    O   1.0     0.771514     0.647691     0.901287  Biso 1.000000     O
    O   1.0     0.310314     0.609165     0.769363  Biso 1.000000     O
    O   1.0     0.810319     0.609167     0.769365  Biso 1.000000     O
    O   1.0     0.163815     0.269587     0.896594  Biso 1.000000     O
    O   1.0     0.663821     0.269587     0.896594  Biso 1.000000     O
    O   1.0     0.066804     0.203693     0.846503  Biso 1.000000     O
    O   1.0     0.566810     0.203693     0.846504  Biso 1.000000     O
    O   1.0     0.119586     0.249876     0.065947  Biso 1.000000     O
    O   1.0     0.619592     0.249877     0.065949  Biso 1.000000     O
    O   1.0     0.063510     0.402334    -0.007348  Biso 1.000000     O
    O   1.0     0.563514     0.402332    -0.007346  Biso 1.000000     O
    O   1.0     0.479048     0.388177     0.137196  Biso 1.000000     O
    O   1.0     0.979062     0.388179     0.137196  Biso 1.000000     O
    O   1.0     0.442811     0.251847     0.096309  Biso 1.000000     O
    O   1.0     0.942819     0.251850     0.096309  Biso 1.000000     O
    O   1.0     0.084245     0.589360     0.228956  Biso 1.000000     O
    O   1.0     0.584251     0.589360     0.228959  Biso 1.000000     O
    O   1.0     0.180631     0.636834     0.296620  Biso 1.000000     O
    O   1.0     0.680638     0.636833     0.296620  Biso 1.000000     O
    O   1.0     0.130146     0.413542     0.233469  Biso 1.000000     O
    O   1.0     0.630151     0.413541     0.233470  Biso 1.000000     O
    O   1.0     0.184768     0.500787     0.092523  Biso 1.000000     O
    O   1.0     0.684772     0.500786     0.092524  Biso 1.000000     O
    O   1.0     0.271801     0.352231     0.096658  Biso 1.000000     O
    O   1.0     0.771808     0.352231     0.096657  Biso 1.000000     O
    O   1.0     0.309838     0.390472     0.228998  Biso 1.000000     O
    O   1.0     0.809844     0.390472     0.228997  Biso 1.000000     O
   Cd   1.0     0.312815     0.878235     0.499062  Biso 1.000000    Cd
   Cd   1.0     0.812821     0.878237     0.499060  Biso 1.000000    Cd
   Cd   1.0     0.438106     0.993462     0.381995  Biso 1.000000    Cd
   Cd   1.0     0.938111     0.993463     0.381993  Biso 1.000000    Cd
   Cd   1.0     0.378320     0.731274     0.779568  Biso 1.000000    Cd
   Cd   1.0     0.878327     0.731274     0.779565  Biso 1.000000    Cd
   Cd   1.0     0.312560     0.122278     0.498854  Biso 1.000000    Cd
   Cd   1.0     0.812567     0.122281     0.498854  Biso 1.000000    Cd
   Cd   1.0     0.438116     0.006757     0.615876  Biso 1.000000    Cd
   Cd   1.0     0.938121     0.006758     0.615875  Biso 1.000000    Cd
   Cd   1.0     0.378254     0.268562     0.217870  Biso 1.000000    Cd
   Cd   1.0     0.878261     0.268562     0.217867  Biso 1.000000    Cd
   Cd   1.0     0.186982     0.621736    -0.001010  Biso 1.000000    Cd
   Cd   1.0     0.686987     0.621736    -0.001008  Biso 1.000000    Cd
   Cd   1.0     0.061683     0.506572     0.882213  Biso 1.000000    Cd
   Cd   1.0     0.561686     0.506572     0.882219  Biso 1.000000    Cd
   Cd   1.0     0.121585     0.768689     0.279452  Biso 1.000000    Cd
   Cd   1.0     0.621593     0.768689     0.279454  Biso 1.000000    Cd
   Cd   1.0     0.187293     0.377768     0.998836  Biso 1.000000    Cd
   Cd   1.0     0.687298     0.377769     0.998836  Biso 1.000000    Cd
   Cd   1.0     0.061592     0.493243     0.116056  Biso 1.000000    Cd
   Cd   1.0     0.561596     0.493240     0.116060  Biso 1.000000    Cd
   Cd   1.0     0.121450     0.231551     0.717884  Biso 1.000000    Cd
   Cd   1.0     0.621458     0.231553     0.717886  Biso 1.000000    Cd
