#======================================================================

# CRYSTAL DATA

#----------------------------------------------------------------------

data_VESTA_phase_1


_pd_phase_name                         MOF
_cell_length_a                         12.95100
_cell_length_b                         13.49900
_cell_length_c                         26.89400
_cell_angle_alpha                      97.06100
_cell_angle_beta                       90.10700
_cell_angle_gamma                      90.00100
_symmetry_space_group_name_H-M         "P 1"
_symmetry_Int_Tables_number            1

loop_
_symmetry_equiv_pos_as_xyz
   "x, y, z"

loop_
   _atom_site_label
   _atom_site_occupancy
   _atom_site_fract_x
   _atom_site_fract_y
   _atom_site_fract_z
   _atom_site_adp_type
   _atom_site_B_iso_or_equiv
   _atom_site_type_symbol
    H   1.0     0.713688     0.729144     0.912729  Biso 1.000000     H
    H   1.0     0.484253     0.525285     0.844221  Biso 1.000000     H
    H   1.0     0.634645     0.729623     0.756897  Biso 1.000000     H
    H   1.0     0.081049     0.930639     0.016449  Biso 1.000000     H
    H   1.0     0.302856     0.743592     0.079798  Biso 1.000000     H
    H   1.0     0.192952     0.664526     0.928380  Biso 1.000000     H
    H   1.0     0.212089     0.770091     0.587326  Biso 1.000000     H
    H   1.0     0.984875     0.975646     0.655958  Biso 1.000000     H
    H   1.0     0.133683     0.769575     0.743091  Biso 1.000000     H
    H   1.0     0.580783     0.569228     0.483688  Biso 1.000000     H
    H   1.0     0.802918     0.756446     0.421051  Biso 1.000000     H
    H   1.0     0.691346     0.836062     0.571925  Biso 1.000000     H
    H   1.0     0.302137     0.323499     0.098506  Biso 1.000000     H
    H   1.0     0.527899     0.500660     0.186807  Biso 1.000000     H
    H   1.0     0.354725     0.277312     0.252424  Biso 1.000000     H
    H   1.0     0.932338     0.088502     0.960739  Biso 1.000000     H
    H   1.0     0.658296     0.218110     0.903813  Biso 1.000000     H
    H   1.0     0.757970     0.307104     0.055951  Biso 1.000000     H
    H   1.0     0.799676     0.174893     0.400783  Biso 1.000000     H
    H   1.0     0.026252    -0.001080     0.312920  Biso 1.000000     H
    H   1.0     0.853668     0.223074     0.247345  Biso 1.000000     H
    H   1.0     0.432367     0.411845     0.539705  Biso 1.000000     H
    H   1.0     0.159096     0.279579     0.595475  Biso 1.000000     H
    H   1.0     0.259281     0.193489     0.443365  Biso 1.000000     H
    C   1.0     0.681835     0.737030     0.834386  Biso 1.000000     C
    C   1.0     0.668680     0.698923     0.880134  Biso 1.000000     C
    C   1.0     0.596546     0.623248     0.883722  Biso 1.000000     C
    C   1.0     0.540180     0.584270     0.841252  Biso 1.000000     C
    C   1.0     0.554523     0.621375     0.795479  Biso 1.000000     C
    C   1.0     0.624716     0.698998     0.792174  Biso 1.000000     C
    C   1.0     0.757074     0.819017     0.830785  Biso 1.000000     C
    C   1.0     0.574933     0.583214     0.932037  Biso 1.000000     C
    C   1.0     0.492012     0.581573     0.750882  Biso 1.000000     C
    C   1.0     0.132114     0.800705     0.967968  Biso 1.000000     C
    C   1.0     0.128882     0.863826     0.013198  Biso 1.000000     C
    C   1.0     0.188009     0.841454     0.053983  Biso 1.000000     C
    C   1.0     0.253282     0.758188     0.048798  Biso 1.000000     C
    C   1.0     0.255138     0.693895     0.003730  Biso 1.000000     C
    C   1.0     0.192581     0.713875     0.963626  Biso 1.000000     C
    C   1.0     0.072746     0.828917     0.924323  Biso 1.000000     C
    C   1.0     0.182956     0.908306     0.101772  Biso 1.000000     C
    C   1.0     0.331481     0.609950    -0.001230  Biso 1.000000     C
    C   1.0     0.180461     0.761935     0.665625  Biso 1.000000     C
    C   1.0     0.167461     0.800462     0.619933  Biso 1.000000     C
    C   1.0     0.096112     0.876866     0.616392  Biso 1.000000     C
    C   1.0     0.040210     0.916109     0.658861  Biso 1.000000     C
    C   1.0     0.054363     0.878558     0.704553  Biso 1.000000     C
    C   1.0     0.123882     0.800322     0.707822  Biso 1.000000     C
    C   1.0     0.255486     0.679608     0.669138  Biso 1.000000     C
    C   1.0     0.074718     0.917262     0.568102  Biso 1.000000     C
    C   1.0     0.992278     0.918284     0.749168  Biso 1.000000     C
    C   1.0     0.631067     0.699575     0.532215  Biso 1.000000     C
    C   1.0     0.628450     0.636182     0.487046  Biso 1.000000     C
    C   1.0     0.688087     0.658422     0.446492  Biso 1.000000     C
    C   1.0     0.753027     0.741917     0.451855  Biso 1.000000     C
    C   1.0     0.754351     0.806530     0.496839  Biso 1.000000     C
    C   1.0     0.691406     0.786596     0.536713  Biso 1.000000     C
    C   1.0     0.571363     0.671400     0.575707  Biso 1.000000     C
    C   1.0     0.683958     0.591371     0.398713  Biso 1.000000     C
    C   1.0     0.830922     0.890392     0.501704  Biso 1.000000     C
    C   1.0     0.318685     0.292845     0.174983  Biso 1.000000     C
    C   1.0     0.341642     0.343450     0.134048  Biso 1.000000     C
    C   1.0     0.418447     0.417026     0.137940  Biso 1.000000     C
    C   1.0     0.468300     0.443486     0.183654  Biso 1.000000     C
    C   1.0     0.443765     0.394566     0.225160  Biso 1.000000     C
    C   1.0     0.370528     0.317645     0.220609  Biso 1.000000     C
    C   1.0     0.242940     0.208728     0.168110  Biso 1.000000     C
    C   1.0     0.450632     0.460800     0.091987  Biso 1.000000     C
    C   1.0     0.502604     0.420896     0.272727  Biso 1.000000     C
    C   1.0     0.850339     0.194209     0.013319  Biso 1.000000     C
    C   1.0     0.866985     0.139441     0.966303  Biso 1.000000     C
    C   1.0     0.799048     0.150274     0.926687  Biso 1.000000     C
    C   1.0     0.712313     0.212490     0.934395  Biso 1.000000     C
    C   1.0     0.697580     0.269460     0.980757  Biso 1.000000     C
    C   1.0     0.767762     0.261629     0.019916  Biso 1.000000     C
    C   1.0     0.920529     0.180626     0.056234  Biso 1.000000     C
    C   1.0     0.818183     0.096207     0.876407  Biso 1.000000     C
    C   1.0     0.611224     0.343672     0.987468  Biso 1.000000     C
    C   1.0     0.816692     0.206253     0.324489  Biso 1.000000     C
    C   1.0     0.839409     0.155262     0.365348  Biso 1.000000     C
    C   1.0     0.916384     0.081900     0.361571  Biso 1.000000     C
    C   1.0     0.966585     0.055983     0.315988  Biso 1.000000     C
    C   1.0     0.942503     0.105414     0.274529  Biso 1.000000     C
    C   1.0     0.869099     0.182177     0.279027  Biso 1.000000     C
    C   1.0     0.741173     0.290549     0.331477  Biso 1.000000     C
    C   1.0     0.948767     0.038221     0.407593  Biso 1.000000     C
    C   1.0     0.002250     0.079733     0.227246  Biso 1.000000     C
    C   1.0     0.351011     0.306269     0.486649  Biso 1.000000     C
    C   1.0     0.367327     0.360533     0.533834  Biso 1.000000     C
    C   1.0     0.299278     0.348799     0.573176  Biso 1.000000     C
    C   1.0     0.213098     0.285976     0.565071  Biso 1.000000     C
    C   1.0     0.198810     0.229506     0.518525  Biso 1.000000     C
    C   1.0     0.268849     0.238366     0.479598  Biso 1.000000     C
    C   1.0     0.420783     0.320850     0.443901  Biso 1.000000     C
    C   1.0     0.317522     0.402620     0.623579  Biso 1.000000     C
    C   1.0     0.112537     0.155308     0.511519  Biso 1.000000     C
    O   1.0     0.746557     0.869554     0.793659  Biso 1.000000     O
    O   1.0     0.825729     0.833156     0.864696  Biso 1.000000     O
    O   1.0     0.512578     0.510210     0.929532  Biso 1.000000     O
    O   1.0     0.618084     0.624260     0.972597  Biso 1.000000     O
    O   1.0     0.511501     0.613352     0.709396  Biso 1.000000     O
    O   1.0     0.420740     0.518196     0.758301  Biso 1.000000     O
    O   1.0     0.000000     0.916989     0.928957  Biso 1.000000     O
    O   1.0     0.063240     0.770470     0.884122  Biso 1.000000     O
    O   1.0     0.240224     0.892144     0.139181  Biso 1.000000     O
    O   1.0     0.121015     0.983238     0.106475  Biso 1.000000     O
    O   1.0     0.308003     0.526464     0.972797  Biso 1.000000     O
    O   1.0     0.416988     0.629083     0.021205  Biso 1.000000     O
    O   1.0     0.245130     0.628188     0.705901  Biso 1.000000     O
    O   1.0     0.324109     0.666445     0.635268  Biso 1.000000     O
    O   1.0     0.000000    -0.008645     0.570707  Biso 1.000000     O
    O   1.0     0.116566     0.875488     0.527474  Biso 1.000000     O
    O   1.0     0.013209     0.887211     0.790712  Biso 1.000000     O
    O   1.0     0.919945     0.980545     0.741708  Biso 1.000000     O
    O   1.0     0.529249     0.583496     0.570943  Biso 1.000000     O
    O   1.0     0.562191     0.729742     0.615934  Biso 1.000000     O
    O   1.0     0.741957     0.607521     0.361636  Biso 1.000000     O
    O   1.0     0.622125     0.516407     0.393631  Biso 1.000000     O
    O   1.0     0.808568     0.974065     0.527689  Biso 1.000000     O
    O   1.0     0.915874     0.870860     0.478965  Biso 1.000000     O
    O   1.0     0.257343     0.138099     0.195285  Biso 1.000000     O
    O   1.0     0.172370     0.212235     0.135404  Biso 1.000000     O
    O   1.0     0.519900     0.529539     0.096301  Biso 1.000000     O
    O   1.0     0.407958     0.423905     0.051250  Biso 1.000000     O
    O   1.0     0.480799     0.375947     0.310272  Biso 1.000000     O
    O   1.0     0.573424     0.487206     0.271244  Biso 1.000000     O
    O   1.0    -0.013278     0.108315     0.050579  Biso 1.000000     O
    O   1.0     0.915260     0.236865     0.097493  Biso 1.000000     O
    O   1.0     0.750387     0.099909     0.841446  Biso 1.000000     O
    O   1.0     0.901477     0.046107     0.866624  Biso 1.000000     O
    O   1.0     0.631190     0.425284     0.014604  Biso 1.000000     O
    O   1.0     0.524917     0.320937     0.965173  Biso 1.000000     O
    O   1.0     0.755844     0.361195     0.304357  Biso 1.000000     O
    O   1.0     0.670847     0.287423     0.364207  Biso 1.000000     O
    O   1.0     0.017919     0.969431     0.403352  Biso 1.000000     O
    O   1.0     0.906530     0.075313     0.448340  Biso 1.000000     O
    O   1.0     0.981959     0.125295     0.189705  Biso 1.000000     O
    O   1.0     0.072668     0.013067     0.228953  Biso 1.000000     O
    O   1.0     0.488630     0.391571     0.449977  Biso 1.000000     O
    O   1.0     0.413370     0.266481     0.402083  Biso 1.000000     O
    O   1.0     0.250027     0.397886     0.658421  Biso 1.000000     O
    O   1.0     0.400243     0.453793     0.633610  Biso 1.000000     O
    O   1.0     0.132588     0.073254     0.484824  Biso 1.000000     O
    O   1.0     0.026144     0.178848     0.533354  Biso 1.000000     O
   Zn   1.0     0.964345     0.895797     0.861912  Biso 1.000000    Zn
   Zn   1.0     0.818341    -0.003220     0.793851  Biso 1.000000    Zn
   Zn   1.0     0.426696     0.434185     0.976825  Biso 1.000000    Zn
   Zn   1.0     0.462565     0.604403     0.637916  Biso 1.000000    Zn
   Zn   1.0     0.319256     0.501218     0.706004  Biso 1.000000    Zn
   Zn   1.0     0.927594     0.065900     0.522975  Biso 1.000000    Zn
   Zn   1.0     0.039932     0.137686     0.121127  Biso 1.000000    Zn
   Zn   1.0     0.183513     0.000000     0.181374  Biso 1.000000    Zn
   Zn   1.0     0.559341     0.562074     0.029163  Biso 1.000000    Zn
   Zn   1.0     0.538505     0.362488     0.378667  Biso 1.000000    Zn
   Zn   1.0     0.684747     0.488058     0.318863  Biso 1.000000    Zn
   Zn   1.0     0.057765     0.937699     0.470722  Biso 1.000000    Zn
