#======================================================================

# CRYSTAL DATA

#----------------------------------------------------------------------

data_VESTA_phase_1


_pd_phase_name                         MOF
_cell_length_a                         25.57500
_cell_length_b                         12.77000
_cell_length_c                         17.71500
_cell_angle_alpha                      89.71700
_cell_angle_beta                       105.36300
_cell_angle_gamma                      90.19400
_symmetry_space_group_name_H-M         "P 1"
_symmetry_Int_Tables_number            1

loop_
_symmetry_equiv_pos_as_xyz
   "x, y, z"

loop_
   _atom_site_label
   _atom_site_occupancy
   _atom_site_fract_x
   _atom_site_fract_y
   _atom_site_fract_z
   _atom_site_adp_type
   _atom_site_B_iso_or_equiv
   _atom_site_type_symbol
    C   1.0     0.190436     0.689474     0.945292  Biso 1.000000     C
    C   1.0     0.690425     0.689473     0.945292  Biso 1.000000     C
    C   1.0     0.174201     0.667259     0.013127  Biso 1.000000     C
    C   1.0     0.674190     0.667259     0.013127  Biso 1.000000     C
    C   1.0     0.211508     0.631486     0.080589  Biso 1.000000     C
    C   1.0     0.711498     0.631487     0.080589  Biso 1.000000     C
    C   1.0     0.265311     0.613195     0.081325  Biso 1.000000     C
    C   1.0     0.765300     0.613194     0.081325  Biso 1.000000     C
    C   1.0     0.281172     0.631640     0.012884  Biso 1.000000     C
    C   1.0     0.781162     0.631639     0.012885  Biso 1.000000     C
    C   1.0     0.244587     0.670820     0.946094  Biso 1.000000     C
    C   1.0     0.744577     0.670820     0.946095  Biso 1.000000     C
    C   1.0     0.151691     0.739691     0.876098  Biso 1.000000     C
    C   1.0     0.651681     0.739690     0.876099  Biso 1.000000     C
    C   1.0     0.306311     0.580265     0.154731  Biso 1.000000     C
    C   1.0     0.806300     0.580264     0.154732  Biso 1.000000     C
    C   1.0     0.218630     0.084798     0.840424  Biso 1.000000     C
    C   1.0     0.718620     0.084797     0.840424  Biso 1.000000     C
    C   1.0     0.235433     0.040343     0.922498  Biso 1.000000     C
    C   1.0     0.735423     0.040342     0.922498  Biso 1.000000     C
    C   1.0     0.276287     0.965369     0.945732  Biso 1.000000     C
    C   1.0     0.776277     0.965367     0.945732  Biso 1.000000     C
    C   1.0     0.290054     0.926172     0.022155  Biso 1.000000     C
    C   1.0     0.790043     0.926170     0.022155  Biso 1.000000     C
    C   1.0     0.033805     0.918658     0.866442  Biso 1.000000     C
    C   1.0     0.533797     0.918658     0.866441  Biso 1.000000     C
    C   1.0     0.014703     0.958799     0.934395  Biso 1.000000     C
    C   1.0     0.514695     0.958794     0.934397  Biso 1.000000     C
    C   1.0     0.462899    -0.000299     0.926616  Biso 1.000000     C
    C   1.0     0.962895    -0.000301     0.926615  Biso 1.000000     C
    C   1.0     0.448442     0.039744     0.991306  Biso 1.000000     C
    C   1.0     0.948436     0.039740     0.991307  Biso 1.000000     C
    C   1.0     0.061032     0.191958     0.553462  Biso 1.000000     C
    C   1.0     0.561025     0.191960     0.553462  Biso 1.000000     C
    C   1.0     0.077671     0.169320     0.486281  Biso 1.000000     C
    C   1.0     0.577666     0.169321     0.486284  Biso 1.000000     C
    C   1.0     0.040827     0.132807     0.418807  Biso 1.000000     C
    C   1.0     0.540822     0.132807     0.418808  Biso 1.000000     C
    C   1.0     0.487003     0.113153     0.417745  Biso 1.000000     C
    C   1.0     0.986997     0.113154     0.417745  Biso 1.000000     C
    C   1.0     0.470950     0.131383     0.485971  Biso 1.000000     C
    C   1.0     0.970946     0.131385     0.485971  Biso 1.000000     C
    C   1.0     0.006940     0.172387     0.552296  Biso 1.000000     C
    C   1.0     0.506932     0.172388     0.552296  Biso 1.000000     C
    C   1.0     0.099088     0.242760     0.622602  Biso 1.000000     C
    C   1.0     0.599079     0.242762     0.622603  Biso 1.000000     C
    C   1.0     0.445990     0.079723     0.344568  Biso 1.000000     C
    C   1.0     0.945982     0.079726     0.344569  Biso 1.000000     C
    C   1.0     0.029896     0.584773     0.659143  Biso 1.000000     C
    C   1.0     0.529887     0.584776     0.659143  Biso 1.000000     C
    C   1.0     0.013396     0.540665     0.577241  Biso 1.000000     C
    C   1.0     0.513388     0.540668     0.577240  Biso 1.000000     C
    C   1.0     0.471840     0.466966     0.553108  Biso 1.000000     C
    C   1.0     0.971835     0.466969     0.553109  Biso 1.000000     C
    C   1.0     0.458659     0.427417     0.477062  Biso 1.000000     C
    C   1.0     0.958652     0.427420     0.477062  Biso 1.000000     C
    C   1.0     0.216235     0.424893     0.635917  Biso 1.000000     C
    C   1.0     0.716223     0.424892     0.635916  Biso 1.000000     C
    C   1.0     0.235267     0.463128     0.567169  Biso 1.000000     C
    C   1.0     0.735254     0.463128     0.567168  Biso 1.000000     C
    C   1.0     0.287165     0.502945     0.573440  Biso 1.000000     C
    C   1.0     0.787152     0.502944     0.573439  Biso 1.000000     C
    C   1.0     0.301373     0.538703     0.507117  Biso 1.000000     C
    C   1.0     0.801360     0.538702     0.507116  Biso 1.000000     C
    C   1.0     0.309505     0.310451     0.054704  Biso 1.000000     C
    C   1.0     0.809495     0.310451     0.054704  Biso 1.000000     C
    C   1.0     0.325742     0.332670     0.986876  Biso 1.000000     C
    C   1.0     0.825731     0.332668     0.986876  Biso 1.000000     C
    C   1.0     0.288441     0.368442     0.919407  Biso 1.000000     C
    C   1.0     0.788431     0.368443     0.919407  Biso 1.000000     C
    C   1.0     0.234633     0.386697     0.918656  Biso 1.000000     C
    C   1.0     0.734622     0.386699     0.918656  Biso 1.000000     C
    C   1.0     0.218766     0.368234     0.987096  Biso 1.000000     C
    C   1.0     0.718756     0.368232     0.987096  Biso 1.000000     C
    C   1.0     0.255353     0.329084     0.053896  Biso 1.000000     C
    C   1.0     0.755343     0.329085     0.053898  Biso 1.000000     C
    C   1.0     0.348226     0.260284     0.123941  Biso 1.000000     C
    C   1.0     0.848214     0.260282     0.123941  Biso 1.000000     C
    C   1.0     0.193643     0.419720     0.845263  Biso 1.000000     C
    C   1.0     0.693632     0.419719     0.845263  Biso 1.000000     C
    C   1.0     0.280854     0.915547     0.159528  Biso 1.000000     C
    C   1.0     0.780844     0.915546     0.159528  Biso 1.000000     C
    C   1.0     0.263782     0.960066     0.077437  Biso 1.000000     C
    C   1.0     0.763771     0.960065     0.077437  Biso 1.000000     C
    C   1.0     0.222995     0.035046     0.054210  Biso 1.000000     C
    C   1.0     0.722985     0.035045     0.054209  Biso 1.000000     C
    C   1.0     0.208909     0.074003     0.977674  Biso 1.000000     C
    C   1.0     0.708900     0.074001     0.977674  Biso 1.000000     C
    C   1.0     0.465962     0.081155     0.133591  Biso 1.000000     C
    C   1.0     0.965955     0.081153     0.133591  Biso 1.000000     C
    C   1.0     0.485096     0.041022     0.065670  Biso 1.000000     C
    C   1.0     0.985090     0.041021     0.065671  Biso 1.000000     C
    C   1.0     0.036921     0.000000     0.073439  Biso 1.000000     C
    C   1.0     0.536915     0.000000     0.073439  Biso 1.000000     C
    C   1.0     0.051355     0.960123     0.008741  Biso 1.000000     C
    C   1.0     0.551349     0.960119     0.008741  Biso 1.000000     C
    C   1.0     0.438935     0.808012     0.446523  Biso 1.000000     C
    C   1.0     0.938928     0.808014     0.446523  Biso 1.000000     C
    C   1.0     0.422299     0.830633     0.513710  Biso 1.000000     C
    C   1.0     0.922293     0.830634     0.513713  Biso 1.000000     C
    C   1.0     0.459145     0.867113     0.581192  Biso 1.000000     C
    C   1.0     0.959139     0.867113     0.581193  Biso 1.000000     C
    C   1.0     0.012970     0.886741     0.582264  Biso 1.000000     C
    C   1.0     0.512964     0.886742     0.582264  Biso 1.000000     C
    C   1.0     0.029020     0.868550     0.514036  Biso 1.000000     C
    C   1.0     0.529015     0.868552     0.514036  Biso 1.000000     C
    C   1.0     0.493033     0.827569     0.447701  Biso 1.000000     C
    C   1.0     0.993025     0.827569     0.447701  Biso 1.000000     C
    C   1.0     0.400869     0.757264     0.377360  Biso 1.000000     C
    C   1.0     0.900859     0.757265     0.377361  Biso 1.000000     C
    C   1.0     0.053951     0.920221     0.655450  Biso 1.000000     C
    C   1.0     0.553945     0.920223     0.655451  Biso 1.000000     C
    C   1.0     0.470069     0.415197     0.340882  Biso 1.000000     C
    C   1.0     0.970061     0.415201     0.340881  Biso 1.000000     C
    C   1.0     0.486580     0.459323     0.422775  Biso 1.000000     C
    C   1.0     0.986573     0.459323     0.422774  Biso 1.000000     C
    C   1.0     0.028136     0.533019     0.446903  Biso 1.000000     C
    C   1.0     0.528131     0.533021     0.446904  Biso 1.000000     C
    C   1.0     0.041317     0.572569     0.522951  Biso 1.000000     C
    C   1.0     0.541310     0.572572     0.522952  Biso 1.000000     C
    C   1.0     0.283734     0.575107     0.364080  Biso 1.000000     C
    C   1.0     0.783722     0.575107     0.364079  Biso 1.000000     C
    C   1.0     0.264687     0.536853     0.432817  Biso 1.000000     C
    C   1.0     0.764675     0.536853     0.432816  Biso 1.000000     C
    C   1.0     0.212787     0.497038     0.426547  Biso 1.000000     C
    C   1.0     0.712774     0.497038     0.426546  Biso 1.000000     C
    C   1.0     0.198582     0.461277     0.492873  Biso 1.000000     C
    C   1.0     0.698570     0.461277     0.492872  Biso 1.000000     C
    O   1.0     0.169360     0.821891     0.850381  Biso 1.000000     O
    O   1.0     0.669350     0.821890     0.850381  Biso 1.000000     O
    O   1.0     0.105130     0.697888     0.851841  Biso 1.000000     O
    O   1.0     0.605120     0.697886     0.851843  Biso 1.000000     O
    O   1.0     0.318558     0.488024     0.171500  Biso 1.000000     O
    O   1.0     0.818546     0.488023     0.171500  Biso 1.000000     O
    O   1.0     0.330195     0.656377     0.201413  Biso 1.000000     O
    O   1.0     0.830183     0.656376     0.201414  Biso 1.000000     O
    O   1.0     0.177136     0.049800     0.790787  Biso 1.000000     O
    O   1.0     0.677125     0.049802     0.790787  Biso 1.000000     O
    O   1.0     0.246412     0.160926     0.824745  Biso 1.000000     O
    O   1.0     0.746402     0.160926     0.824747  Biso 1.000000     O
    O   1.0     0.074392     0.968045     0.855749  Biso 1.000000     O
    O   1.0     0.574383     0.968047     0.855748  Biso 1.000000     O
    O   1.0     0.509230     0.840450     0.828570  Biso 1.000000     O
    O   1.0     0.000000     0.840454     0.828568  Biso 1.000000     O
    O   1.0     0.081019     0.324974     0.646960  Biso 1.000000     O
    O   1.0     0.581007     0.324974     0.646962  Biso 1.000000     O
    O   1.0     0.145445     0.201025     0.648387  Biso 1.000000     O
    O   1.0     0.645435     0.201027     0.648390  Biso 1.000000     O
    O   1.0     0.433383     0.987499     0.328508  Biso 1.000000     O
    O   1.0     0.933374     0.987502     0.328510  Biso 1.000000     O
    O   1.0     0.422125     0.155973     0.297647  Biso 1.000000     O
    O   1.0     0.922117     0.155975     0.297647  Biso 1.000000     O
    O   1.0     0.071920     0.551178     0.708605  Biso 1.000000     O
    O   1.0     0.571909     0.551176     0.708608  Biso 1.000000     O
    O   1.0     0.501759     0.659377     0.675297  Biso 1.000000     O
    O   1.0     0.000000     0.659372     0.675300  Biso 1.000000     O
    O   1.0     0.175934     0.474556     0.646522  Biso 1.000000     O
    O   1.0     0.675923     0.474558     0.646523  Biso 1.000000     O
    O   1.0     0.240612     0.346768     0.674414  Biso 1.000000     O
    O   1.0     0.740600     0.346770     0.674415  Biso 1.000000     O
    O   1.0     0.330533     0.178131     0.149674  Biso 1.000000     O
    O   1.0     0.830521     0.178131     0.149675  Biso 1.000000     O
    O   1.0     0.394784     0.302094     0.148224  Biso 1.000000     O
    O   1.0     0.894773     0.302093     0.148226  Biso 1.000000     O
    O   1.0     0.181456     0.511984     0.828516  Biso 1.000000     O
    O   1.0     0.681443     0.511983     0.828518  Biso 1.000000     O
    O   1.0     0.169716     0.343647     0.798568  Biso 1.000000     O
    O   1.0     0.669704     0.343646     0.798568  Biso 1.000000     O
    O   1.0     0.322373     0.950667     0.209057  Biso 1.000000     O
    O   1.0     0.822362     0.950669     0.209057  Biso 1.000000     O
    O   1.0     0.253316     0.839076     0.175271  Biso 1.000000     O
    O   1.0     0.753307     0.839075     0.175273  Biso 1.000000     O
    O   1.0     0.425318     0.031847     0.144187  Biso 1.000000     O
    O   1.0     0.925308     0.031851     0.144185  Biso 1.000000     O
    O   1.0    -0.009441     0.159299     0.171510  Biso 1.000000     O
    O   1.0     0.490555     0.159301     0.171510  Biso 1.000000     O
    O   1.0     0.418908     0.675000     0.353028  Biso 1.000000     O
    O   1.0     0.918896     0.675001     0.353028  Biso 1.000000     O
    O   1.0     0.354539     0.799092     0.351520  Biso 1.000000     O
    O   1.0     0.854529     0.799094     0.351524  Biso 1.000000     O
    O   1.0     0.066559     0.012453     0.671438  Biso 1.000000     O
    O   1.0     0.566550     0.012455     0.671439  Biso 1.000000     O
    O   1.0     0.077779     0.844017     0.702463  Biso 1.000000     O
    O   1.0     0.577771     0.844018     0.702464  Biso 1.000000     O
    O   1.0     0.428046     0.448795     0.291420  Biso 1.000000     O
    O   1.0     0.928035     0.448792     0.291423  Biso 1.000000     O
    O   1.0    -0.001815     0.340568     0.324733  Biso 1.000000     O
    O   1.0     0.498182     0.340563     0.324736  Biso 1.000000     O
    O   1.0     0.324024     0.525406     0.353468  Biso 1.000000     O
    O   1.0     0.824012     0.525407     0.353469  Biso 1.000000     O
    O   1.0     0.259387     0.653272     0.325612  Biso 1.000000     O
    O   1.0     0.759376     0.653274     0.325612  Biso 1.000000     O
    F   1.0     0.122827     0.684444     0.015702  Biso 1.000000     F
    F   1.0     0.622815     0.684443     0.015702  Biso 1.000000     F
    F   1.0     0.195619     0.617573     0.146845  Biso 1.000000     F
    F   1.0     0.695611     0.617573     0.146847  Biso 1.000000     F
    F   1.0     0.333038     0.613367     0.012348  Biso 1.000000     F
    F   1.0     0.833028     0.613366     0.012348  Biso 1.000000     F
    F   1.0     0.262102     0.688966     0.882135  Biso 1.000000     F
    F   1.0     0.762094     0.688967     0.882138  Biso 1.000000     F
    F   1.0     0.302092     0.929150     0.894179  Biso 1.000000     F
    F   1.0     0.802085     0.929151     0.894181  Biso 1.000000     F
    F   1.0     0.329389     0.853377     0.043337  Biso 1.000000     F
    F   1.0     0.829378     0.853376     0.043339  Biso 1.000000     F
    F   1.0     0.426700     0.004151     0.856028  Biso 1.000000     F
    F   1.0     0.926695     0.004152     0.856029  Biso 1.000000     F
    F   1.0     0.398216     0.079817     0.981019  Biso 1.000000     F
    F   1.0     0.898211     0.079817     0.981019  Biso 1.000000     F
    F   1.0     0.129112     0.186816     0.484238  Biso 1.000000     F
    F   1.0     0.629107     0.186817     0.484238  Biso 1.000000     F
    F   1.0     0.057488     0.119692     0.353216  Biso 1.000000     F
    F   1.0     0.557482     0.119691     0.353217  Biso 1.000000     F
    F   1.0     0.419446     0.111084     0.487336  Biso 1.000000     F
    F   1.0     0.919443     0.111082     0.487336  Biso 1.000000     F
    F   1.0     0.488892     0.191168     0.615518  Biso 1.000000     F
    F   1.0     0.988885     0.191166     0.615515  Biso 1.000000     F
    F   1.0     0.444547     0.431469     0.603306  Biso 1.000000     F
    F   1.0     0.944541     0.431468     0.603306  Biso 1.000000     F
    F   1.0     0.418309     0.356141     0.456160  Biso 1.000000     F
    F   1.0     0.918301     0.356145     0.456162  Biso 1.000000     F
    F   1.0     0.323715     0.510614     0.643602  Biso 1.000000     F
    F   1.0     0.823697     0.510614     0.643603  Biso 1.000000     F
    F   1.0     0.351609     0.577973     0.515745  Biso 1.000000     F
    F   1.0     0.851596     0.577973     0.515744  Biso 1.000000     F
    F   1.0     0.377118     0.315525     0.984306  Biso 1.000000     F
    F   1.0     0.877106     0.315526     0.984306  Biso 1.000000     F
    F   1.0     0.304360     0.382400     0.853175  Biso 1.000000     F
    F   1.0     0.804352     0.382400     0.853176  Biso 1.000000     F
    F   1.0     0.166916     0.386607     0.987652  Biso 1.000000     F
    F   1.0     0.666907     0.386608     0.987653  Biso 1.000000     F
    F   1.0     0.237873     0.311017     0.117896  Biso 1.000000     F
    F   1.0     0.737865     0.311019     0.117899  Biso 1.000000     F
    F   1.0     0.197603     0.071133     0.106173  Biso 1.000000     F
    F   1.0     0.697596     0.071135     0.106174  Biso 1.000000     F
    F   1.0     0.169094     0.146121     0.956519  Biso 1.000000     F
    F   1.0     0.669087     0.146124     0.956519  Biso 1.000000     F
    F   1.0     0.073222     0.995851     0.143961  Biso 1.000000     F
    F   1.0     0.573216     0.995851     0.143962  Biso 1.000000     F
    F   1.0     0.101594     0.920146     0.019012  Biso 1.000000     F
    F   1.0     0.601587     0.920142     0.019011  Biso 1.000000     F
    F   1.0     0.370859     0.813153     0.515759  Biso 1.000000     F
    F   1.0     0.870853     0.813155     0.515760  Biso 1.000000     F
    F   1.0     0.442491     0.880273     0.646786  Biso 1.000000     F
    F   1.0     0.942485     0.880273     0.646785  Biso 1.000000     F
    F   1.0     0.080518     0.888890     0.512665  Biso 1.000000     F
    F   1.0     0.580514     0.888888     0.512666  Biso 1.000000     F
    F   1.0     0.011093     0.808806     0.384487  Biso 1.000000     F
    F   1.0     0.511086     0.808805     0.384485  Biso 1.000000     F
    F   1.0     0.055438     0.568504     0.396708  Biso 1.000000     F
    F   1.0     0.555432     0.568504     0.396708  Biso 1.000000     F
    F   1.0     0.081668     0.643840     0.543847  Biso 1.000000     F
    F   1.0     0.581660     0.643845     0.543848  Biso 1.000000     F
    F   1.0     0.176215     0.489370     0.356400  Biso 1.000000     F
    F   1.0     0.676199     0.489370     0.356400  Biso 1.000000     F
    F   1.0     0.148349     0.422003     0.484254  Biso 1.000000     F
    F   1.0     0.648336     0.422003     0.484253  Biso 1.000000     F
   Zn   1.0     0.042571     0.743153     0.766415  Biso 1.000000    Zn
   Zn   1.0     0.542562     0.743153     0.766415  Biso 1.000000    Zn
   Zn   1.0     0.124486     0.937768     0.790737  Biso 1.000000    Zn
   Zn   1.0     0.624478     0.937769     0.790737  Biso 1.000000    Zn
   Zn   1.0     0.206609     0.247957     0.734776  Biso 1.000000    Zn
   Zn   1.0     0.706600     0.247957     0.734778  Biso 1.000000    Zn
   Zn   1.0     0.124667     0.439993     0.709252  Biso 1.000000    Zn
   Zn   1.0     0.624657     0.439993     0.709252  Biso 1.000000    Zn
   Zn   1.0     0.457327     0.256804     0.233656  Biso 1.000000    Zn
   Zn   1.0     0.957318     0.256805     0.233655  Biso 1.000000    Zn
   Zn   1.0     0.375372     0.062208     0.209362  Biso 1.000000    Zn
   Zn   1.0     0.875363     0.062209     0.209362  Biso 1.000000    Zn
   Zn   1.0     0.293351     0.752129     0.265175  Biso 1.000000    Zn
   Zn   1.0     0.793343     0.752130     0.265177  Biso 1.000000    Zn
   Zn   1.0     0.375286     0.559977     0.290733  Biso 1.000000    Zn
   Zn   1.0     0.875275     0.559977     0.290734  Biso 1.000000    Zn
