#======================================================================

# CRYSTAL DATA

#----------------------------------------------------------------------

data_VESTA_phase_1


_pd_phase_name                         MOF
_cell_length_a                         19.23200
_cell_length_b                         19.25100
_cell_length_c                         29.43400
_cell_angle_alpha                      70.80200
_cell_angle_beta                       70.77000
_cell_angle_gamma                      90.02000
_symmetry_space_group_name_H-M         "P 1"
_symmetry_Int_Tables_number            1

loop_
_symmetry_equiv_pos_as_xyz
   "x, y, z"

loop_
   _atom_site_label
   _atom_site_occupancy
   _atom_site_fract_x
   _atom_site_fract_y
   _atom_site_fract_z
   _atom_site_adp_type
   _atom_site_B_iso_or_equiv
   _atom_site_type_symbol
    H   1.0     0.055787     0.266398     0.097842  Biso 1.000000     H
    H   1.0     0.018886     0.145053     0.171587  Biso 1.000000     H
    H   1.0     0.789724     0.181834     0.204240  Biso 1.000000     H
    H   1.0     0.826755     0.300068     0.129178  Biso 1.000000     H
    H   1.0     0.685984     0.935472     0.378022  Biso 1.000000     H
    H   1.0     0.798289     0.957460     0.298837  Biso 1.000000     H
    H   1.0     0.822355     0.188464     0.279921  Biso 1.000000     H
    H   1.0     0.712790     0.165224     0.359935  Biso 1.000000     H
    H   1.0     0.773424     0.498442     0.080735  Biso 1.000000     H
    H   1.0     0.771334     0.410634     0.073889  Biso 1.000000     H
    H   1.0     0.840955     0.480119     0.935373  Biso 1.000000     H
    H   1.0     0.824442     0.399646     0.990130  Biso 1.000000     H
    H   1.0     0.800114     0.607840     0.000000  Biso 1.000000     H
    H   1.0     0.841653     0.602074     0.943214  Biso 1.000000     H
    H   1.0     0.345814     0.634395     0.099038  Biso 1.000000     H
    H   1.0     0.309641     0.681708     0.172699  Biso 1.000000     H
    H   1.0     0.506733     0.612000     0.203977  Biso 1.000000     H
    H   1.0     0.544115     0.569134     0.128985  Biso 1.000000     H
    H   1.0     0.437409     0.686616     0.377078  Biso 1.000000     H
    H   1.0     0.404389     0.743142     0.298020  Biso 1.000000     H
    H   1.0     0.398764     0.530172     0.280638  Biso 1.000000     H
    H   1.0     0.428232     0.474076     0.360516  Biso 1.000000     H
    H   1.0     0.644789     0.420118     0.080599  Biso 1.000000     H
    H   1.0     0.653831     0.514808     0.073746  Biso 1.000000     H
    H   1.0     0.724406     0.584613     0.935235  Biso 1.000000     H
    H   1.0     0.685501     0.610022     0.989962  Biso 1.000000     H
    H   1.0     0.694870     0.386986     0.000000  Biso 1.000000     H
    H   1.0     0.715764     0.454745     0.943087  Biso 1.000000     H
    H   1.0     0.265960     0.345355     0.599136  Biso 1.000000     H
    H   1.0     0.144782     0.308684     0.673180  Biso 1.000000     H
    H   1.0     0.182515     0.506042     0.704154  Biso 1.000000     H
    H   1.0     0.300567     0.543881     0.628814  Biso 1.000000     H
    H   1.0     0.935649     0.436396     0.878144  Biso 1.000000     H
    H   1.0     0.957583     0.402866     0.799369  Biso 1.000000     H
    H   1.0     0.188875     0.398326     0.780393  Biso 1.000000     H
    H   1.0     0.165677     0.428280     0.860019  Biso 1.000000     H
    H   1.0     0.498352     0.645112     0.580563  Biso 1.000000     H
    H   1.0     0.410462     0.653873     0.573711  Biso 1.000000     H
    H   1.0     0.480179     0.724204     0.435194  Biso 1.000000     H
    H   1.0     0.399586     0.685529     0.489955  Biso 1.000000     H
    H   1.0     0.607959     0.694945     0.504727  Biso 1.000000     H
    H   1.0     0.602238     0.715889     0.443055  Biso 1.000000     H
    H   1.0     0.635531     0.055185     0.598007  Biso 1.000000     H
    H   1.0     0.683390     0.017968     0.671408  Biso 1.000000     H
    H   1.0     0.612754     0.789268     0.704028  Biso 1.000000     H
    H   1.0     0.569372     0.826597     0.629273  Biso 1.000000     H
    H   1.0     0.687312     0.685837     0.877013  Biso 1.000000     H
    H   1.0     0.744315     0.797838     0.797585  Biso 1.000000     H
    H   1.0     0.531165     0.821346     0.780237  Biso 1.000000     H
    H   1.0     0.474601     0.712088     0.860476  Biso 1.000000     H
    H   1.0     0.419487     0.773464     0.580564  Biso 1.000000     H
    H   1.0     0.514199     0.771497     0.573975  Biso 1.000000     H
    H   1.0     0.584889     0.840927     0.435450  Biso 1.000000     H
    H   1.0     0.609919     0.824268     0.490362  Biso 1.000000     H
    H   1.0     0.386882     0.800244     0.504526  Biso 1.000000     H
    H   1.0     0.455039     0.841504     0.442971  Biso 1.000000     H
    H   1.0     0.944167     0.733569     0.902156  Biso 1.000000     H
    H   1.0     0.981069     0.854913     0.828410  Biso 1.000000     H
    H   1.0     0.210231     0.818130     0.795758  Biso 1.000000     H
    H   1.0     0.173198     0.699897     0.870821  Biso 1.000000     H
    H   1.0     0.313979     0.064481     0.621974  Biso 1.000000     H
    H   1.0     0.201672     0.042500     0.701157  Biso 1.000000     H
    H   1.0     0.177597     0.811494     0.720079  Biso 1.000000     H
    H   1.0     0.287164     0.834727     0.640067  Biso 1.000000     H
    H   1.0     0.226528     0.501505     0.919264  Biso 1.000000     H
    H   1.0     0.228635     0.589315     0.926107  Biso 1.000000     H
    H   1.0     0.159011     0.519838     0.064623  Biso 1.000000     H
    H   1.0     0.175534     0.600311     0.009864  Biso 1.000000     H
    H   1.0     0.199825     0.392109    -0.004851  Biso 1.000000     H
    H   1.0     0.158291     0.397881     0.056787  Biso 1.000000     H
    H   1.0     0.654161     0.365548     0.900953  Biso 1.000000     H
    H   1.0     0.690338     0.318240     0.827290  Biso 1.000000     H
    H   1.0     0.493233     0.387927     0.796022  Biso 1.000000     H
    H   1.0     0.455849     0.430788     0.871016  Biso 1.000000     H
    H   1.0     0.562574     0.313338     0.622908  Biso 1.000000     H
    H   1.0     0.595596     0.256807     0.701965  Biso 1.000000     H
    H   1.0     0.601199     0.469768     0.719362  Biso 1.000000     H
    H   1.0     0.571730     0.525869     0.639484  Biso 1.000000     H
    H   1.0     0.355177     0.579808     0.919399  Biso 1.000000     H
    H   1.0     0.346117     0.485117     0.926255  Biso 1.000000     H
    H   1.0     0.275541     0.415323     0.064767  Biso 1.000000     H
    H   1.0     0.314438     0.389907     0.010042  Biso 1.000000     H
    H   1.0     0.305107     0.612950    -0.004767  Biso 1.000000     H
    H   1.0     0.284206     0.545193     0.056909  Biso 1.000000     H
    H   1.0     0.734004     0.654602     0.400863  Biso 1.000000     H
    H   1.0     0.855183     0.691276     0.326820  Biso 1.000000     H
    H   1.0     0.817454     0.493919     0.295842  Biso 1.000000     H
    H   1.0     0.699402     0.456078     0.371183  Biso 1.000000     H
    H   1.0     0.064316     0.563576     0.121850  Biso 1.000000     H
    H   1.0     0.042384     0.597104     0.200625  Biso 1.000000     H
    H   1.0     0.811090     0.601636     0.219607  Biso 1.000000     H
    H   1.0     0.834285     0.571683     0.139981  Biso 1.000000     H
    H   1.0     0.501616     0.354838     0.419433  Biso 1.000000     H
    H   1.0     0.589505     0.346074     0.426287  Biso 1.000000     H
    H   1.0     0.519785     0.275747     0.564804  Biso 1.000000     H
    H   1.0     0.600379     0.314422     0.510044  Biso 1.000000     H
    H   1.0     0.392008     0.305006     0.495268  Biso 1.000000     H
    H   1.0     0.397726     0.284066     0.556941  Biso 1.000000     H
    H   1.0     0.364424     0.944762     0.402001  Biso 1.000000     H
    H   1.0     0.316555     0.981974     0.328606  Biso 1.000000     H
    H   1.0     0.387200     0.210675     0.295974  Biso 1.000000     H
    H   1.0     0.430590     0.173352     0.370726  Biso 1.000000     H
    H   1.0     0.312635     0.314094     0.122991  Biso 1.000000     H
    H   1.0     0.255627     0.202102     0.202425  Biso 1.000000     H
    H   1.0     0.468781     0.178582     0.219768  Biso 1.000000     H
    H   1.0     0.525347     0.287834     0.139525  Biso 1.000000     H
    H   1.0     0.580475     0.226483     0.419435  Biso 1.000000     H
    H   1.0     0.485762     0.228452     0.426026  Biso 1.000000     H
    H   1.0     0.415077     0.159027     0.564551  Biso 1.000000     H
    H   1.0     0.390044     0.175681     0.509640  Biso 1.000000     H
    H   1.0     0.613082     0.199708     0.495472  Biso 1.000000     H
    H   1.0     0.544928     0.158448     0.557028  Biso 1.000000     H
    C   1.0     0.997727     0.246984     0.121388  Biso 1.000000     C
    C   1.0     0.977434     0.180208     0.162409  Biso 1.000000     C
    C   1.0     0.902502     0.156888     0.193370  Biso 1.000000     C
    C   1.0     0.848118     0.200334     0.181163  Biso 1.000000     C
    C   1.0     0.868441     0.266175     0.139209  Biso 1.000000     C
    C   1.0     0.692227     0.049219     0.373386  Biso 1.000000     C
    C   1.0     0.716513     0.990529     0.356178  Biso 1.000000     C
    C   1.0     0.778235     0.002741     0.312184  Biso 1.000000     C
    C   1.0     0.816133     0.074378     0.283646  Biso 1.000000     C
    C   1.0     0.792259     0.133005     0.301087  Biso 1.000000     C
    C   1.0     0.731264     0.120309     0.345821  Biso 1.000000     C
    C   1.0     0.882995     0.084459     0.236946  Biso 1.000000     C
    C   1.0     0.760613     0.468024     0.058257  Biso 1.000000     C
    C   1.0     0.804460     0.452847     0.975330  Biso 1.000000     C
    C   1.0     0.797404     0.576035     0.980489  Biso 1.000000     C
    C   1.0     0.965089     0.364242     0.066527  Biso 1.000000     C
    C   1.0     0.943396     0.290714     0.109513  Biso 1.000000     C
    C   1.0     0.624399     0.035838     0.420363  Biso 1.000000     C
    C   1.0     0.380593     0.630126     0.122265  Biso 1.000000     C
    C   1.0     0.360226     0.655709     0.163254  Biso 1.000000     C
    C   1.0     0.404583     0.648000     0.193781  Biso 1.000000     C
    C   1.0     0.471119     0.616680     0.181237  Biso 1.000000     C
    C   1.0     0.492394     0.592967     0.139307  Biso 1.000000     C
    C   1.0     0.435534     0.577103     0.373215  Biso 1.000000     C
    C   1.0     0.428668     0.653060     0.355588  Biso 1.000000     C
    C   1.0     0.410998     0.684490     0.311661  Biso 1.000000     C
    C   1.0     0.401486     0.640953     0.283594  Biso 1.000000     C
    C   1.0     0.407810     0.564826     0.301416  Biso 1.000000     C
    C   1.0     0.424022     0.533160     0.346084  Biso 1.000000     C
    C   1.0     0.381065     0.677197     0.237090  Biso 1.000000     C
    C   1.0     0.680350     0.473109     0.058169  Biso 1.000000     C
    C   1.0     0.720428     0.571668     0.975228  Biso 1.000000     C
    C   1.0     0.722237     0.443274     0.980418  Biso 1.000000     C
    C   1.0     0.467961     0.568334     0.066845  Biso 1.000000     C
    C   1.0     0.446836     0.598358     0.109972  Biso 1.000000     C
    C   1.0     0.456100     0.543844     0.420208  Biso 1.000000     C
    C   1.0     0.246800     0.380088     0.622378  Biso 1.000000     C
    C   1.0     0.180112     0.359450     0.663574  Biso 1.000000     C
    C   1.0     0.157072     0.403728     0.694139  Biso 1.000000     C
    C   1.0     0.200765     0.470490     0.681387  Biso 1.000000     C
    C   1.0     0.266514     0.492019     0.639265  Biso 1.000000     C
    C   1.0     0.049532     0.435094     0.873462  Biso 1.000000     C
    C   1.0     0.990756     0.427768     0.856369  Biso 1.000000     C
    C   1.0     0.002942     0.409818     0.812600  Biso 1.000000     C
    C   1.0     0.074642     0.400474     0.784172  Biso 1.000000     C
    C   1.0     0.133370     0.407232     0.801472  Biso 1.000000     C
    C   1.0     0.120696     0.423714     0.845990  Biso 1.000000     C
    C   1.0     0.084607     0.379840     0.737818  Biso 1.000000     C
    C   1.0     0.467866     0.680487     0.558121  Biso 1.000000     C
    C   1.0     0.452870     0.720393     0.475163  Biso 1.000000     C
    C   1.0     0.576124     0.722297     0.480416  Biso 1.000000     C
    C   1.0     0.364141     0.467847     0.566680  Biso 1.000000     C
    C   1.0     0.290737     0.446515     0.609920  Biso 1.000000     C
    C   1.0     0.036123     0.455950     0.920282  Biso 1.000000     C
    C   1.0     0.631188     0.997152     0.621465  Biso 1.000000     C
    C   1.0     0.657080     0.976681     0.662306  Biso 1.000000     C
    C   1.0     0.649228     0.901794     0.693154  Biso 1.000000     C
    C   1.0     0.617532     0.847631     0.681041  Biso 1.000000     C
    C   1.0     0.593519     0.868127     0.639252  Biso 1.000000     C
    C   1.0     0.577693     0.691826     0.873169  Biso 1.000000     C
    C   1.0     0.653825     0.716173     0.855451  Biso 1.000000     C
    C   1.0     0.685515     0.777719     0.811321  Biso 1.000000     C
    C   1.0     0.642048     0.815378     0.783159  Biso 1.000000     C
    C   1.0     0.565737     0.791429     0.801103  Biso 1.000000     C
    C   1.0     0.533818     0.730608     0.845967  Biso 1.000000     C
    C   1.0     0.678580     0.882159     0.736376  Biso 1.000000     C
    C   1.0     0.472693     0.760699     0.558206  Biso 1.000000     C
    C   1.0     0.571707     0.804412     0.475406  Biso 1.000000     C
    C   1.0     0.443313     0.797398     0.480303  Biso 1.000000     C
    C   1.0     0.568585     0.964887     0.566688  Biso 1.000000     C
    C   1.0     0.598990     0.943035     0.609630  Biso 1.000000     C
    C   1.0     0.544171     0.624214     0.920301  Biso 1.000000     C
    C   1.0     0.002227     0.752982     0.878610  Biso 1.000000     C
    C   1.0     0.022520     0.819757     0.837588  Biso 1.000000     C
    C   1.0     0.097453     0.843077     0.806627  Biso 1.000000     C
    C   1.0     0.151837     0.799631     0.818835  Biso 1.000000     C
    C   1.0     0.131513     0.733790     0.860789  Biso 1.000000     C
    C   1.0     0.307732     0.950733     0.626613  Biso 1.000000     C
    C   1.0     0.283447     0.009425     0.643819  Biso 1.000000     C
    C   1.0     0.221724     0.997217     0.687811  Biso 1.000000     C
    C   1.0     0.183824     0.925581     0.716351  Biso 1.000000     C
    C   1.0     0.207696     0.866952     0.698912  Biso 1.000000     C
    C   1.0     0.268692     0.879644     0.654179  Biso 1.000000     C
    C   1.0     0.116961     0.915504     0.763050  Biso 1.000000     C
    C   1.0     0.239347     0.531921     0.941741  Biso 1.000000     C
    C   1.0     0.195508     0.547105     0.024666  Biso 1.000000     C
    C   1.0     0.202542     0.423914     0.019511  Biso 1.000000     C
    C   1.0     0.034865     0.635723     0.933472  Biso 1.000000     C
    C   1.0     0.056558     0.709252     0.890485  Biso 1.000000     C
    C   1.0     0.375561     0.964110     0.579638  Biso 1.000000     C
    C   1.0     0.619380     0.369813     0.877728  Biso 1.000000     C
    C   1.0     0.639749     0.344234     0.836737  Biso 1.000000     C
    C   1.0     0.595390     0.351938     0.806212  Biso 1.000000     C
    C   1.0     0.528849     0.383251     0.818760  Biso 1.000000     C
    C   1.0     0.507573     0.406961     0.860692  Biso 1.000000     C
    C   1.0     0.564438     0.422847     0.626779  Biso 1.000000     C
    C   1.0     0.571310     0.346891     0.644401  Biso 1.000000     C
    C   1.0     0.588982     0.315458     0.688327  Biso 1.000000     C
    C   1.0     0.598488     0.358991     0.716398  Biso 1.000000     C
    C   1.0     0.592158     0.435117     0.698581  Biso 1.000000     C
    C   1.0     0.575944     0.466786     0.653913  Biso 1.000000     C
    C   1.0     0.618908     0.322743     0.762902  Biso 1.000000     C
    C   1.0     0.319608     0.526822     0.941830  Biso 1.000000     C
    C   1.0     0.279519     0.428268     0.024773  Biso 1.000000     C
    C   1.0     0.277732     0.556664     0.019578  Biso 1.000000     C
    C   1.0     0.532004     0.431594     0.933153  Biso 1.000000     C
    C   1.0     0.553133     0.401574     0.890024  Biso 1.000000     C
    C   1.0     0.543868     0.456107     0.579788  Biso 1.000000     C
    C   1.0     0.753165     0.619870     0.377621  Biso 1.000000     C
    C   1.0     0.819854     0.640509     0.336425  Biso 1.000000     C
    C   1.0     0.842895     0.596233     0.305860  Biso 1.000000     C
    C   1.0     0.799203     0.529470     0.318611  Biso 1.000000     C
    C   1.0     0.733454     0.507940     0.360732  Biso 1.000000     C
    C   1.0     0.950431     0.564873     0.126535  Biso 1.000000     C
    C   1.0     0.009209     0.572202     0.143626  Biso 1.000000     C
    C   1.0     0.997024     0.590151     0.187396  Biso 1.000000     C
    C   1.0     0.925324     0.599491     0.215825  Biso 1.000000     C
    C   1.0     0.866595     0.592732     0.198527  Biso 1.000000     C
    C   1.0     0.879267     0.576250     0.154009  Biso 1.000000     C
    C   1.0     0.915360     0.620123     0.262181  Biso 1.000000     C
    C   1.0     0.532101     0.319462     0.441876  Biso 1.000000     C
    C   1.0     0.547095     0.279559     0.524835  Biso 1.000000     C
    C   1.0     0.423841     0.277655     0.519581  Biso 1.000000     C
    C   1.0     0.635825     0.532111     0.433318  Biso 1.000000     C
    C   1.0     0.709230     0.553443     0.390078  Biso 1.000000     C
    C   1.0     0.963839     0.544017     0.079716  Biso 1.000000     C
    C   1.0     0.368767     0.002794     0.378542  Biso 1.000000     C
    C   1.0     0.342870     0.023262     0.337703  Biso 1.000000     C
    C   1.0     0.350720     0.098149     0.306854  Biso 1.000000     C
    C   1.0     0.382423     0.152313     0.318962  Biso 1.000000     C
    C   1.0     0.406439     0.131820     0.360749  Biso 1.000000     C
    C   1.0     0.422255     0.308100     0.126832  Biso 1.000000     C
    C   1.0     0.346122     0.283758     0.144553  Biso 1.000000     C
    C   1.0     0.314430     0.222217     0.188686  Biso 1.000000     C
    C   1.0     0.357896     0.184556     0.216848  Biso 1.000000     C
    C   1.0     0.434208     0.208500     0.198902  Biso 1.000000     C
    C   1.0     0.466129     0.269318     0.154036  Biso 1.000000     C
    C   1.0     0.321361     0.117782     0.263636  Biso 1.000000     C
    C   1.0     0.527270     0.239249     0.441793  Biso 1.000000     C
    C   1.0     0.428258     0.195539     0.524594  Biso 1.000000     C
    C   1.0     0.556652     0.202553     0.519696  Biso 1.000000     C
    C   1.0     0.431377     0.035065     0.433313  Biso 1.000000     C
    C   1.0     0.400968     0.056913     0.390373  Biso 1.000000     C
    C   1.0     0.455778     0.375709     0.079699  Biso 1.000000     C
    N   1.0     0.814712     0.500020     0.004611  Biso 1.000000     N
    N   1.0     0.680587     0.495087     0.004465  Biso 1.000000     N
    N   1.0     0.500037     0.680646     0.504427  Biso 1.000000     N
    N   1.0     0.494943     0.814700     0.504549  Biso 1.000000     N
    N   1.0     0.185246     0.499933     0.995387  Biso 1.000000     N
    N   1.0     0.319371     0.504844     0.995534  Biso 1.000000     N
    N   1.0     0.499929     0.319305     0.495570  Biso 1.000000     N
    N   1.0     0.505021     0.185249     0.495451  Biso 1.000000     N
    O   1.0     0.921350     0.033650     0.234422  Biso 1.000000     O
    O   1.0     0.912962     0.396573     0.053894  Biso 1.000000     O
    O   1.0     0.033742     0.389249     0.046647  Biso 1.000000     O
    O   1.0     0.605678     0.090616     0.435010  Biso 1.000000     O
    O   1.0     0.590124     0.970399     0.441689  Biso 1.000000     O
    O   1.0     0.345394     0.730652     0.234486  Biso 1.000000     O
    O   1.0     0.532829     0.548802     0.053840  Biso 1.000000     O
    O   1.0     0.419067     0.563491     0.047179  Biso 1.000000     O
    O   1.0     0.460073     0.474340     0.435159  Biso 1.000000     O
    O   1.0     0.468899     0.588211     0.441246  Biso 1.000000     O
    O   1.0     0.033612     0.343726     0.735666  Biso 1.000000     O
    O   1.0     0.396605     0.532755     0.553637  Biso 1.000000     O
    O   1.0     0.388938     0.419044     0.546996  Biso 1.000000     O
    O   1.0     0.090978     0.460200     0.934852  Biso 1.000000     O
    O   1.0     0.970594     0.468664     0.941597  Biso 1.000000     O
    O   1.0     0.732326     0.920422     0.733489  Biso 1.000000     O
    O   1.0     0.548755     0.912895     0.554030  Biso 1.000000     O
    O   1.0     0.563768     0.033504     0.546843  Biso 1.000000     O
    O   1.0     0.474532     0.605417     0.935349  Biso 1.000000     O
    O   1.0     0.588498     0.590152     0.941349  Biso 1.000000     O
    O   1.0     0.078608     0.966315     0.765571  Biso 1.000000     O
    O   1.0     0.086994     0.603389     0.946101  Biso 1.000000     O
    O   1.0     0.966211     0.610719     0.953354  Biso 1.000000     O
    O   1.0     0.394280     0.909330     0.564992  Biso 1.000000     O
    O   1.0     0.409839     0.029547     0.558312  Biso 1.000000     O
    O   1.0     0.654577     0.269287     0.765506  Biso 1.000000     O
    O   1.0     0.467142     0.451142     0.946148  Biso 1.000000     O
    O   1.0     0.580887     0.436418     0.952831  Biso 1.000000     O
    O   1.0     0.539893     0.525611     0.564838  Biso 1.000000     O
    O   1.0     0.531066     0.411740     0.558749  Biso 1.000000     O
    O   1.0     0.966354     0.656236     0.264333  Biso 1.000000     O
    O   1.0     0.603361     0.467203     0.446360  Biso 1.000000     O
    O   1.0     0.611029     0.580914     0.453002  Biso 1.000000     O
    O   1.0     0.908982     0.539758     0.065149  Biso 1.000000     O
    O   1.0     0.029370     0.531311     0.058396  Biso 1.000000     O
    O   1.0     0.267606     0.079523     0.266531  Biso 1.000000     O
    O   1.0     0.451205     0.087058     0.445972  Biso 1.000000     O
    O   1.0     0.436199     0.966449     0.453157  Biso 1.000000     O
    O   1.0     0.525413     0.394521     0.064660  Biso 1.000000     O
    O   1.0     0.411455     0.409755     0.058641  Biso 1.000000     O
   Zn   1.0     0.924854     0.503987     0.003771  Biso 1.000000    Zn
   Zn   1.0     0.571389     0.492234     0.003416  Biso 1.000000    Zn
   Zn   1.0     0.504133     0.571424     0.503443  Biso 1.000000    Zn
   Zn   1.0     0.492027     0.924856     0.503705  Biso 1.000000    Zn
   Zn   1.0     0.075102     0.495980     0.996227  Biso 1.000000    Zn
   Zn   1.0     0.428569     0.507687     0.996584  Biso 1.000000    Zn
   Zn   1.0     0.495833     0.428530     0.496554  Biso 1.000000    Zn
   Zn   1.0     0.507934     0.075090     0.496298  Biso 1.000000    Zn
