#======================================================================

# CRYSTAL DATA

#----------------------------------------------------------------------

data_VESTA_phase_1


_pd_phase_name                         MOF
_cell_length_a                         18.18100
_cell_length_b                         18.17400
_cell_length_c                         12.90400
_cell_angle_alpha                      89.99900
_cell_angle_beta                       90.00000
_cell_angle_gamma                      89.98500
_symmetry_space_group_name_H-M         "P 1"
_symmetry_Int_Tables_number            1

loop_
_symmetry_equiv_pos_as_xyz
   "x, y, z"

loop_
   _atom_site_label
   _atom_site_occupancy
   _atom_site_fract_x
   _atom_site_fract_y
   _atom_site_fract_z
   _atom_site_adp_type
   _atom_site_B_iso_or_equiv
   _atom_site_type_symbol
    C   1.0     0.377918     0.490378     0.902939  Biso 1.000000     C
    C   1.0     0.377920     0.990368     0.902939  Biso 1.000000     C
    C   1.0     0.877905     0.490378     0.902939  Biso 1.000000     C
    C   1.0     0.877908     0.990368     0.902939  Biso 1.000000     C
    C   1.0     0.122170     0.009673     0.403031  Biso 1.000000     C
    C   1.0     0.122173     0.509663     0.403031  Biso 1.000000     C
    C   1.0     0.622158     0.009673     0.403031  Biso 1.000000     C
    C   1.0     0.622160     0.509663     0.403031  Biso 1.000000     C
    C   1.0     0.259678     0.127972     0.653009  Biso 1.000000     C
    C   1.0     0.259681     0.627962     0.653009  Biso 1.000000     C
    C   1.0     0.759666     0.127972     0.653009  Biso 1.000000     C
    C   1.0     0.759668     0.627962     0.653009  Biso 1.000000     C
    C   1.0     0.240334     0.372225     0.152835  Biso 1.000000     C
    C   1.0     0.240337     0.872215     0.152835  Biso 1.000000     C
    C   1.0     0.740322     0.372225     0.152835  Biso 1.000000     C
    C   1.0     0.740324     0.872215     0.152835  Biso 1.000000     C
    C   1.0     0.372206     0.240369     0.847079  Biso 1.000000     C
    C   1.0     0.372209     0.740359     0.847079  Biso 1.000000     C
    C   1.0     0.872194     0.240369     0.847079  Biso 1.000000     C
    C   1.0     0.872196     0.740359     0.847079  Biso 1.000000     C
    C   1.0     0.127981     0.259648     0.346899  Biso 1.000000     C
    C   1.0     0.127983     0.759638     0.346898  Biso 1.000000     C
    C   1.0     0.627968     0.259648     0.346899  Biso 1.000000     C
    C   1.0     0.627971     0.759638     0.346899  Biso 1.000000     C
    C   1.0     0.490345     0.377911     0.097104  Biso 1.000000     C
    C   1.0     0.490348     0.877901     0.097104  Biso 1.000000     C
    C   1.0     0.990333     0.377911     0.097104  Biso 1.000000     C
    C   1.0     0.990335     0.877901     0.097104  Biso 1.000000     C
    C   1.0     0.009708     0.122194     0.597031  Biso 1.000000     C
    C   1.0     0.009710     0.622184     0.597031  Biso 1.000000     C
    C   1.0     0.509695     0.122194     0.597031  Biso 1.000000     C
    C   1.0     0.509698     0.622184     0.597031  Biso 1.000000     C
    N   1.0     0.292433     0.379495     0.100844  Biso 1.000000     N
    N   1.0     0.292435     0.879485     0.100844  Biso 1.000000     N
    N   1.0     0.792420     0.379495     0.100844  Biso 1.000000     N
    N   1.0     0.792422     0.879485     0.100844  Biso 1.000000     N
    N   1.0     0.207562     0.120683     0.601057  Biso 1.000000     N
    N   1.0     0.207564     0.620673     0.601057  Biso 1.000000     N
    N   1.0     0.707549     0.120683     0.601057  Biso 1.000000     N
    N   1.0     0.707552     0.620673     0.601057  Biso 1.000000     N
    N   1.0     0.370630     0.542477     0.850907  Biso 1.000000     N
    N   1.0     0.370632     0.000000     0.850907  Biso 1.000000     N
    N   1.0     0.870617     0.542477     0.850907  Biso 1.000000     N
    N   1.0     0.870619     0.000000     0.850907  Biso 1.000000     N
    N   1.0     0.129428    -0.042411     0.350960  Biso 1.000000     N
    N   1.0     0.129430     0.457579     0.350960  Biso 1.000000     N
    N   1.0     0.629415    -0.042411     0.350960  Biso 1.000000     N
    N   1.0     0.629417     0.457579     0.350960  Biso 1.000000     N
    N   1.0    -0.042399     0.129447     0.649019  Biso 1.000000     N
    N   1.0    -0.042397     0.629437     0.649019  Biso 1.000000     N
    N   1.0     0.457588     0.129447     0.649019  Biso 1.000000     N
    N   1.0     0.457591     0.629437     0.649019  Biso 1.000000     N
    N   1.0     0.542466     0.370631     0.149055  Biso 1.000000     N
    N   1.0     0.542468     0.870621     0.149055  Biso 1.000000     N
    N   1.0     0.000000     0.370631     0.149055  Biso 1.000000     N
    N   1.0     0.000000     0.870621     0.149055  Biso 1.000000     N
    N   1.0     0.379486     0.292443     0.899153  Biso 1.000000     N
    N   1.0     0.379488     0.792433     0.899153  Biso 1.000000     N
    N   1.0     0.879473     0.292443     0.899153  Biso 1.000000     N
    N   1.0     0.879476     0.792433     0.899153  Biso 1.000000     N
    N   1.0     0.120688     0.207552     0.398932  Biso 1.000000     N
    N   1.0     0.120690     0.707542     0.398931  Biso 1.000000     N
    N   1.0     0.620675     0.207552     0.398931  Biso 1.000000     N
    N   1.0     0.620677     0.707542     0.398932  Biso 1.000000     N
   Cd   1.0     0.392511     0.392520     0.000049  Biso 1.000000    Cd
   Cd   1.0     0.392513     0.892510     0.000049  Biso 1.000000    Cd
   Cd   1.0     0.892498     0.392520     0.000049  Biso 1.000000    Cd
   Cd   1.0     0.892500     0.892510     0.000049  Biso 1.000000    Cd
   Cd   1.0     0.107589     0.107585     0.500042  Biso 1.000000    Cd
   Cd   1.0     0.107591     0.607575     0.500042  Biso 1.000000    Cd
   Cd   1.0     0.607576     0.107585     0.500042  Biso 1.000000    Cd
   Cd   1.0     0.607578     0.607575     0.500042  Biso 1.000000    Cd
   Cd   1.0     0.357573     0.142537     0.749960  Biso 1.000000    Cd
   Cd   1.0     0.357575     0.642527     0.749960  Biso 1.000000    Cd
   Cd   1.0     0.857560     0.142537     0.749960  Biso 1.000000    Cd
   Cd   1.0     0.857562     0.642527     0.749960  Biso 1.000000    Cd
   Cd   1.0     0.142526     0.357573     0.249924  Biso 1.000000    Cd
   Cd   1.0     0.142529     0.857563     0.249924  Biso 1.000000    Cd
   Cd   1.0     0.642514     0.357573     0.249924  Biso 1.000000    Cd
   Cd   1.0     0.642516     0.857563     0.249924  Biso 1.000000    Cd
