#======================================================================

# CRYSTAL DATA

#----------------------------------------------------------------------

data_VESTA_phase_1


_pd_phase_name                         MOF
_cell_length_a                         13.64300
_cell_length_b                         19.68900
_cell_length_c                         20.36400
_cell_angle_alpha                      105.25800
_cell_angle_beta                       98.59500
_cell_angle_gamma                      114.97800
_symmetry_space_group_name_H-M         "P 1"
_symmetry_Int_Tables_number            1

loop_
_symmetry_equiv_pos_as_xyz
   "x, y, z"

loop_
   _atom_site_label
   _atom_site_occupancy
   _atom_site_fract_x
   _atom_site_fract_y
   _atom_site_fract_z
   _atom_site_adp_type
   _atom_site_B_iso_or_equiv
   _atom_site_type_symbol
    H   1.0     0.261532     0.136464     0.276891  Biso 1.000000     H
    H   1.0     0.261530     0.136463     0.776885  Biso 1.000000     H
    H   1.0     0.261555     0.636462     0.276892  Biso 1.000000     H
    H   1.0     0.261552     0.636462     0.776886  Biso 1.000000     H
    H   1.0     0.761539     0.136462     0.276893  Biso 1.000000     H
    H   1.0     0.761531     0.136459     0.776884  Biso 1.000000     H
    H   1.0     0.761545     0.636459     0.276892  Biso 1.000000     H
    H   1.0     0.761539     0.636461     0.776885  Biso 1.000000     H
    H   1.0     0.078328     0.456305     0.380033  Biso 1.000000     H
    H   1.0     0.078328     0.456304     0.880025  Biso 1.000000     H
    H   1.0     0.078341     0.956306     0.380034  Biso 1.000000     H
    H   1.0     0.078347     0.956303     0.880028  Biso 1.000000     H
    H   1.0     0.578331     0.456300     0.380032  Biso 1.000000     H
    H   1.0     0.578319     0.456304     0.880026  Biso 1.000000     H
    H   1.0     0.578326     0.956308     0.380033  Biso 1.000000     H
    H   1.0     0.578339     0.956303     0.880028  Biso 1.000000     H
    H   1.0     0.083994     0.446369     0.166485  Biso 1.000000     H
    H   1.0     0.083988     0.446368     0.666476  Biso 1.000000     H
    H   1.0     0.083998     0.946368     0.166483  Biso 1.000000     H
    H   1.0     0.083995     0.946367     0.666477  Biso 1.000000     H
    H   1.0     0.583983     0.446362     0.166481  Biso 1.000000     H
    H   1.0     0.583985     0.446362     0.666476  Biso 1.000000     H
    H   1.0     0.583994     0.946366     0.166483  Biso 1.000000     H
    H   1.0     0.583998     0.946362     0.666477  Biso 1.000000     H
    H   1.0     0.349755     0.238646     0.200806  Biso 1.000000     H
    H   1.0     0.349753     0.238647     0.700801  Biso 1.000000     H
    H   1.0     0.349768     0.738649     0.200807  Biso 1.000000     H
    H   1.0     0.349769     0.738647     0.700803  Biso 1.000000     H
    H   1.0     0.849749     0.238648     0.200806  Biso 1.000000     H
    H   1.0     0.849753     0.238645     0.700799  Biso 1.000000     H
    H   1.0     0.849765     0.738646     0.200809  Biso 1.000000     H
    H   1.0     0.849764     0.738645     0.700802  Biso 1.000000     H
    H   1.0     0.238487     0.363498     0.223111  Biso 1.000000     H
    H   1.0     0.238478     0.363500     0.723106  Biso 1.000000     H
    H   1.0     0.238500     0.863498     0.223112  Biso 1.000000     H
    H   1.0     0.238499     0.863496     0.723105  Biso 1.000000     H
    H   1.0     0.738485     0.363495     0.223110  Biso 1.000000     H
    H   1.0     0.738494     0.363492     0.723105  Biso 1.000000     H
    H   1.0     0.738497     0.863496     0.223112  Biso 1.000000     H
    H   1.0     0.738499     0.863493     0.723105  Biso 1.000000     H
    H   1.0     0.421691     0.043652     0.119967  Biso 1.000000     H
    H   1.0     0.421688     0.043651     0.619959  Biso 1.000000     H
    H   1.0     0.421699     0.543655     0.119968  Biso 1.000000     H
    H   1.0     0.421702     0.543653     0.619961  Biso 1.000000     H
    H   1.0     0.921688     0.043652     0.119967  Biso 1.000000     H
    H   1.0     0.921691     0.043648     0.619960  Biso 1.000000     H
    H   1.0     0.921686     0.543655     0.119968  Biso 1.000000     H
    H   1.0     0.921692     0.543654     0.619962  Biso 1.000000     H
    H   1.0     0.416040     0.053594     0.333519  Biso 1.000000     H
    H   1.0     0.416040     0.053591     0.833511  Biso 1.000000     H
    H   1.0     0.416044     0.553595     0.333519  Biso 1.000000     H
    H   1.0     0.416048     0.553592     0.833512  Biso 1.000000     H
    H   1.0     0.916036     0.053588     0.333518  Biso 1.000000     H
    H   1.0     0.916031     0.053587     0.833511  Biso 1.000000     H
    H   1.0     0.916042     0.553591     0.333519  Biso 1.000000     H
    H   1.0     0.916039     0.553592     0.833513  Biso 1.000000     H
    H   1.0     0.150258     0.261314     0.299192  Biso 1.000000     H
    H   1.0     0.150258     0.261312     0.799185  Biso 1.000000     H
    H   1.0     0.150263     0.761317     0.299192  Biso 1.000000     H
    H   1.0     0.150278     0.761312     0.799188  Biso 1.000000     H
    H   1.0     0.650261     0.261310     0.299191  Biso 1.000000     H
    H   1.0     0.650253     0.261310     0.799183  Biso 1.000000     H
    H   1.0     0.650273     0.761310     0.299194  Biso 1.000000     H
    H   1.0     0.650269     0.761310     0.799186  Biso 1.000000     H
    C   1.0     0.461485     0.342885     0.295477  Biso 1.000000     C
    C   1.0     0.461481     0.342887     0.795472  Biso 1.000000     C
    C   1.0     0.461492     0.842890     0.295479  Biso 1.000000     C
    C   1.0     0.461499     0.842886     0.795474  Biso 1.000000     C
    C   1.0     0.961472     0.342888     0.295478  Biso 1.000000     C
    C   1.0     0.961472     0.342886     0.795471  Biso 1.000000     C
    C   1.0     0.961486     0.842887     0.295480  Biso 1.000000     C
    C   1.0     0.961487     0.842885     0.795474  Biso 1.000000     C
    C   1.0     0.462955     0.337732     0.175334  Biso 1.000000     C
    C   1.0     0.462953     0.337734     0.675329  Biso 1.000000     C
    C   1.0     0.462963     0.837735     0.175336  Biso 1.000000     C
    C   1.0     0.462968     0.837732     0.675331  Biso 1.000000     C
    C   1.0     0.962942     0.337736     0.175335  Biso 1.000000     C
    C   1.0     0.962941     0.337735     0.675328  Biso 1.000000     C
    C   1.0     0.962954     0.837734     0.175336  Biso 1.000000     C
    C   1.0     0.962954     0.837733     0.675331  Biso 1.000000     C
    C   1.0     0.046474     0.423445     0.322653  Biso 1.000000     C
    C   1.0     0.046473     0.423443     0.822646  Biso 1.000000     C
    C   1.0     0.046485     0.923445     0.322654  Biso 1.000000     C
    C   1.0     0.046487     0.923443     0.822648  Biso 1.000000     C
    C   1.0     0.546470     0.423440     0.322652  Biso 1.000000     C
    C   1.0     0.546462     0.423443     0.822647  Biso 1.000000     C
    C   1.0     0.546471     0.923447     0.322653  Biso 1.000000     C
    C   1.0     0.546479     0.923442     0.822648  Biso 1.000000     C
    C   1.0     0.176546     0.047656     0.305054  Biso 1.000000     C
    C   1.0     0.176548     0.047654     0.805048  Biso 1.000000     C
    C   1.0     0.176550     0.547658     0.305055  Biso 1.000000     C
    C   1.0     0.176549     0.547657     0.805047  Biso 1.000000     C
    C   1.0     0.676542     0.047655     0.305054  Biso 1.000000     C
    C   1.0     0.676545     0.047651     0.805048  Biso 1.000000     C
    C   1.0     0.676543     0.547654     0.305053  Biso 1.000000     C
    C   1.0     0.676538     0.547656     0.805047  Biso 1.000000     C
    C   1.0     0.049232     0.417689     0.202669  Biso 1.000000     C
    C   1.0     0.049230     0.417688     0.702662  Biso 1.000000     C
    C   1.0     0.049240     0.917689     0.202669  Biso 1.000000     C
    C   1.0     0.049239     0.917688     0.702664  Biso 1.000000     C
    C   1.0     0.549226     0.417684     0.202668  Biso 1.000000     C
    C   1.0     0.549223     0.417686     0.702663  Biso 1.000000     C
    C   1.0     0.549231     0.917688     0.202668  Biso 1.000000     C
    C   1.0     0.549238     0.917683     0.702663  Biso 1.000000     C
    C   1.0     0.417752     0.302875     0.346000  Biso 1.000000     C
    C   1.0     0.417754     0.302875     0.845995  Biso 1.000000     C
    C   1.0     0.417772     0.802874     0.346002  Biso 1.000000     C
    C   1.0     0.417765     0.802874     0.845997  Biso 1.000000     C
    C   1.0     0.917751     0.302873     0.346001  Biso 1.000000     C
    C   1.0     0.917749     0.302871     0.845994  Biso 1.000000     C
    C   1.0     0.917763     0.802873     0.346003  Biso 1.000000     C
    C   1.0     0.917758     0.802872     0.845996  Biso 1.000000     C
    C   1.0     0.420995     0.293960     0.096431  Biso 1.000000     C
    C   1.0     0.420995     0.293959     0.596427  Biso 1.000000     C
    C   1.0     0.421007     0.793959     0.096433  Biso 1.000000     C
    C   1.0     0.421008     0.793956     0.596428  Biso 1.000000     C
    C   1.0     0.920983     0.293963     0.096432  Biso 1.000000     C
    C   1.0     0.920982     0.293960     0.596426  Biso 1.000000     C
    C   1.0     0.920996     0.793959     0.096433  Biso 1.000000     C
    C   1.0     0.920998     0.793960     0.596428  Biso 1.000000     C
    C   1.0     0.417813     0.300635     0.221667  Biso 1.000000     C
    C   1.0     0.417811     0.300636     0.721662  Biso 1.000000     C
    C   1.0     0.417822     0.800638     0.221670  Biso 1.000000     C
    C   1.0     0.417826     0.800636     0.721665  Biso 1.000000     C
    C   1.0     0.917802     0.300638     0.221669  Biso 1.000000     C
    C   1.0     0.917805     0.300635     0.721661  Biso 1.000000     C
    C   1.0     0.917817     0.800636     0.221670  Biso 1.000000     C
    C   1.0     0.917816     0.800635     0.721664  Biso 1.000000     C
    C   1.0     0.089390     0.461349     0.276283  Biso 1.000000     C
    C   1.0     0.089388     0.461348     0.776276  Biso 1.000000     C
    C   1.0     0.089397     0.961350     0.276283  Biso 1.000000     C
    C   1.0     0.089398     0.961349     0.776278  Biso 1.000000     C
    C   1.0     0.589388     0.461344     0.276282  Biso 1.000000     C
    C   1.0     0.589382     0.461346     0.776277  Biso 1.000000     C
    C   1.0     0.589387     0.961350     0.276282  Biso 1.000000     C
    C   1.0     0.589395     0.961346     0.776277  Biso 1.000000     C
    C   1.0     0.038540     0.157072     0.204520  Biso 1.000000     C
    C   1.0     0.038541     0.157069     0.704513  Biso 1.000000     C
    C   1.0     0.038544     0.657075     0.204522  Biso 1.000000     C
    C   1.0     0.038552     0.657072     0.704517  Biso 1.000000     C
    C   1.0     0.538532     0.157071     0.204519  Biso 1.000000     C
    C   1.0     0.538526     0.157069     0.704512  Biso 1.000000     C
    C   1.0     0.538542     0.657072     0.204523  Biso 1.000000     C
    C   1.0     0.538543     0.657070     0.704515  Biso 1.000000     C
    C   1.0     0.037077     0.162224     0.324664  Biso 1.000000     C
    C   1.0     0.037074     0.162222     0.824657  Biso 1.000000     C
    C   1.0     0.037078     0.662225     0.324665  Biso 1.000000     C
    C   1.0     0.037085     0.662223     0.824660  Biso 1.000000     C
    C   1.0     0.537065     0.162225     0.324664  Biso 1.000000     C
    C   1.0     0.537061     0.162223     0.824657  Biso 1.000000     C
    C   1.0     0.537074     0.662223     0.324666  Biso 1.000000     C
    C   1.0     0.537076     0.662223     0.824659  Biso 1.000000     C
    C   1.0     0.453553     0.076513     0.177347  Biso 1.000000     C
    C   1.0     0.453550     0.076512     0.677339  Biso 1.000000     C
    C   1.0     0.453561     0.576516     0.177348  Biso 1.000000     C
    C   1.0     0.453563     0.576513     0.677341  Biso 1.000000     C
    C   1.0     0.953545     0.076513     0.177347  Biso 1.000000     C
    C   1.0     0.953547     0.076510     0.677340  Biso 1.000000     C
    C   1.0     0.953544     0.576517     0.177347  Biso 1.000000     C
    C   1.0     0.953551     0.576515     0.677342  Biso 1.000000     C
    C   1.0     0.323490     0.452302     0.194949  Biso 1.000000     C
    C   1.0     0.323485     0.452302     0.694942  Biso 1.000000     C
    C   1.0     0.323491     0.952304     0.194949  Biso 1.000000     C
    C   1.0     0.323490     0.952302     0.694942  Biso 1.000000     C
    C   1.0     0.823486     0.452299     0.194949  Biso 1.000000     C
    C   1.0     0.823484     0.452299     0.694942  Biso 1.000000     C
    C   1.0     0.823485     0.952302     0.194948  Biso 1.000000     C
    C   1.0     0.823485     0.952300     0.694942  Biso 1.000000     C
    C   1.0     0.450800     0.082272     0.297332  Biso 1.000000     C
    C   1.0     0.450796     0.082270     0.797325  Biso 1.000000     C
    C   1.0     0.450805     0.582272     0.297333  Biso 1.000000     C
    C   1.0     0.450808     0.582271     0.797326  Biso 1.000000     C
    C   1.0     0.950794     0.082269     0.297333  Biso 1.000000     C
    C   1.0     0.950791     0.082267     0.797325  Biso 1.000000     C
    C   1.0     0.950791     0.582272     0.297332  Biso 1.000000     C
    C   1.0     0.950795     0.582270     0.797326  Biso 1.000000     C
    C   1.0     0.082257     0.197089     0.153997  Biso 1.000000     C
    C   1.0     0.082261     0.197086     0.653991  Biso 1.000000     C
    C   1.0     0.082273     0.697086     0.153998  Biso 1.000000     C
    C   1.0     0.082275     0.697085     0.653993  Biso 1.000000     C
    C   1.0     0.582254     0.197085     0.153996  Biso 1.000000     C
    C   1.0     0.582253     0.197083     0.653990  Biso 1.000000     C
    C   1.0     0.582267     0.697087     0.154000  Biso 1.000000     C
    C   1.0     0.582267     0.697083     0.653992  Biso 1.000000     C
    C   1.0     0.079034     0.205999     0.403567  Biso 1.000000     C
    C   1.0     0.079033     0.205999     0.903560  Biso 1.000000     C
    C   1.0     0.079043     0.705996     0.403568  Biso 1.000000     C
    C   1.0     0.079042     0.705998     0.903563  Biso 1.000000     C
    C   1.0     0.579023     0.206003     0.403566  Biso 1.000000     C
    C   1.0     0.579020     0.206000     0.903560  Biso 1.000000     C
    C   1.0     0.579034     0.706001     0.403568  Biso 1.000000     C
    C   1.0     0.579033     0.706000     0.903561  Biso 1.000000     C
    C   1.0     0.082210     0.199323     0.278330  Biso 1.000000     C
    C   1.0     0.082208     0.199321     0.778323  Biso 1.000000     C
    C   1.0     0.082211     0.699326     0.278331  Biso 1.000000     C
    C   1.0     0.082224     0.699322     0.778327  Biso 1.000000     C
    C   1.0     0.582205     0.199321     0.278329  Biso 1.000000     C
    C   1.0     0.582200     0.199320     0.778322  Biso 1.000000     C
    C   1.0     0.582215     0.699321     0.278332  Biso 1.000000     C
    C   1.0     0.582215     0.699320     0.778325  Biso 1.000000     C
    C   1.0     0.410642     0.038609     0.223718  Biso 1.000000     C
    C   1.0     0.410639     0.038608     0.723711  Biso 1.000000     C
    C   1.0     0.410644     0.538612     0.223718  Biso 1.000000     C
    C   1.0     0.410647     0.538610     0.723711  Biso 1.000000     C
    C   1.0     0.910637     0.038607     0.223718  Biso 1.000000     C
    C   1.0     0.910637     0.038605     0.723711  Biso 1.000000     C
    C   1.0     0.910630     0.538612     0.223717  Biso 1.000000     C
    C   1.0     0.910638     0.538610     0.723712  Biso 1.000000     C
    O   1.0     0.340629     0.228358     0.320632  Biso 1.000000     O
    O   1.0     0.340631     0.228358     0.820626  Biso 1.000000     O
    O   1.0     0.340642     0.728360     0.320632  Biso 1.000000     O
    O   1.0     0.340643     0.728357     0.820627  Biso 1.000000     O
    O   1.0     0.840626     0.228357     0.320631  Biso 1.000000     O
    O   1.0     0.840619     0.228357     0.820624  Biso 1.000000     O
    O   1.0     0.840640     0.728357     0.320634  Biso 1.000000     O
    O   1.0     0.840648     0.728353     0.820627  Biso 1.000000     O
    O   1.0     0.493388     0.299839     0.062018  Biso 1.000000     O
    O   1.0     0.493389     0.299840     0.562014  Biso 1.000000     O
    O   1.0     0.493402     0.799833     0.062023  Biso 1.000000     O
    O   1.0     0.493400     0.799831     0.562015  Biso 1.000000     O
    O   1.0     0.993378     0.299834     0.062022  Biso 1.000000     O
    O   1.0     0.993376     0.299839     0.562014  Biso 1.000000     O
    O   1.0     0.993391     0.799828     0.062024  Biso 1.000000     O
    O   1.0     0.993394     0.799839     0.562018  Biso 1.000000     O
    O   1.0     0.204918     0.076716     0.254896  Biso 1.000000     O
    O   1.0     0.204915     0.076715     0.754889  Biso 1.000000     O
    O   1.0     0.204939     0.576714     0.254897  Biso 1.000000     O
    O   1.0     0.204935     0.576714     0.754890  Biso 1.000000     O
    O   1.0     0.704923     0.076714     0.254897  Biso 1.000000     O
    O   1.0     0.704921     0.076710     0.754889  Biso 1.000000     O
    O   1.0     0.704929     0.576712     0.254896  Biso 1.000000     O
    O   1.0     0.704918     0.576714     0.754889  Biso 1.000000     O
    O   1.0     0.314688     0.253126     0.064131  Biso 1.000000     O
    O   1.0     0.314688     0.253123     0.564126  Biso 1.000000     O
    O   1.0     0.314701     0.753114     0.064133  Biso 1.000000     O
    O   1.0     0.314701     0.753114     0.564130  Biso 1.000000     O
    O   1.0     0.814677     0.253120     0.064132  Biso 1.000000     O
    O   1.0     0.814675     0.253116     0.564126  Biso 1.000000     O
    O   1.0     0.814689     0.753114     0.064133  Biso 1.000000     O
    O   1.0     0.814692     0.753112     0.564127  Biso 1.000000     O
    O   1.0     0.217873     0.088391     0.370104  Biso 1.000000     O
    O   1.0     0.217881     0.088388     0.870098  Biso 1.000000     O
    O   1.0     0.217885     0.588391     0.370105  Biso 1.000000     O
    O   1.0     0.217880     0.588390     0.870097  Biso 1.000000     O
    O   1.0     0.717869     0.088388     0.370104  Biso 1.000000     O
    O   1.0     0.717866     0.088388     0.870097  Biso 1.000000     O
    O   1.0     0.717878     0.588386     0.370103  Biso 1.000000     O
    O   1.0     0.717877     0.588387     0.870097  Biso 1.000000     O
    O   1.0     0.457552     0.342451     0.412472  Biso 1.000000     O
    O   1.0     0.457562     0.342449     0.912468  Biso 1.000000     O
    O   1.0     0.457576     0.842449     0.412475  Biso 1.000000     O
    O   1.0     0.457569     0.842448     0.912469  Biso 1.000000     O
    O   1.0     0.957546     0.342450     0.412473  Biso 1.000000     O
    O   1.0     0.957561     0.342444     0.912467  Biso 1.000000     O
    O   1.0     0.957571     0.842446     0.412476  Biso 1.000000     O
    O   1.0     0.957569     0.842444     0.912469  Biso 1.000000     O
    O   1.0     0.159377     0.271606     0.179367  Biso 1.000000     O
    O   1.0     0.159354     0.271610     0.679360  Biso 1.000000     O
    O   1.0     0.159384     0.771606     0.179367  Biso 1.000000     O
    O   1.0     0.159395     0.771603     0.679361  Biso 1.000000     O
    O   1.0     0.659384     0.271599     0.179365  Biso 1.000000     O
    O   1.0     0.659375     0.271600     0.679359  Biso 1.000000     O
    O   1.0     0.659400     0.771600     0.179370  Biso 1.000000     O
    O   1.0     0.659388     0.771601     0.679361  Biso 1.000000     O
    O   1.0     0.006639     0.200130     0.437977  Biso 1.000000     O
    O   1.0     0.006638     0.200125     0.937971  Biso 1.000000     O
    O   1.0     0.006651     0.700122     0.437981  Biso 1.000000     O
    O   1.0     0.006647     0.700118     0.937974  Biso 1.000000     O
    O   1.0     0.506631     0.200132     0.437978  Biso 1.000000     O
    O   1.0     0.506627     0.200129     0.937971  Biso 1.000000     O
    O   1.0     0.506643     0.700123     0.437981  Biso 1.000000     O
    O   1.0     0.506640     0.700125     0.937973  Biso 1.000000     O
    O   1.0     0.295109     0.423245     0.245107  Biso 1.000000     O
    O   1.0     0.295106     0.423246     0.745101  Biso 1.000000     O
    O   1.0     0.295123     0.923245     0.245108  Biso 1.000000     O
    O   1.0     0.295115     0.923244     0.745101  Biso 1.000000     O
    O   1.0     0.795098     0.423244     0.245107  Biso 1.000000     O
    O   1.0     0.795115     0.423239     0.745101  Biso 1.000000     O
    O   1.0     0.795112     0.923244     0.245107  Biso 1.000000     O
    O   1.0     0.795118     0.923240     0.745100  Biso 1.000000     O
    O   1.0     0.185340     0.246848     0.435866  Biso 1.000000     O
    O   1.0     0.185340     0.246850     0.935858  Biso 1.000000     O
    O   1.0     0.185350     0.746837     0.435866  Biso 1.000000     O
    O   1.0     0.185349     0.746838     0.935863  Biso 1.000000     O
    O   1.0     0.685330     0.246842     0.435865  Biso 1.000000     O
    O   1.0     0.685327     0.246836     0.935859  Biso 1.000000     O
    O   1.0     0.685342     0.746836     0.435867  Biso 1.000000     O
    O   1.0     0.685340     0.746835     0.935861  Biso 1.000000     O
    O   1.0     0.282146     0.411571     0.129899  Biso 1.000000     O
    O   1.0     0.282145     0.411569     0.629892  Biso 1.000000     O
    O   1.0     0.282162     0.911568     0.129899  Biso 1.000000     O
    O   1.0     0.282166     0.911565     0.629893  Biso 1.000000     O
    O   1.0     0.782144     0.411567     0.129899  Biso 1.000000     O
    O   1.0     0.782140     0.411568     0.629893  Biso 1.000000     O
    O   1.0     0.782161     0.911565     0.129899  Biso 1.000000     O
    O   1.0     0.782163     0.911563     0.629892  Biso 1.000000     O
    O   1.0     0.042450     0.157517     0.087524  Biso 1.000000     O
    O   1.0     0.042470     0.157510     0.587518  Biso 1.000000     O
    O   1.0     0.042511     0.657501     0.087527  Biso 1.000000     O
    O   1.0     0.042455     0.657515     0.587520  Biso 1.000000     O
    O   1.0     0.542432     0.157515     0.087523  Biso 1.000000     O
    O   1.0     0.542436     0.157513     0.587516  Biso 1.000000     O
    O   1.0     0.542456     0.657515     0.087527  Biso 1.000000     O
    O   1.0     0.542454     0.657512     0.587519  Biso 1.000000     O
   Ca   1.0     0.349934     0.227557     0.441040  Biso 1.000000    Ca
   Ca   1.0     0.349933     0.227556     0.941034  Biso 1.000000    Ca
   Ca   1.0     0.349951     0.727554     0.441041  Biso 1.000000    Ca
   Ca   1.0     0.349946     0.727552     0.941036  Biso 1.000000    Ca
   Ca   1.0     0.849925     0.227555     0.441040  Biso 1.000000    Ca
   Ca   1.0     0.849925     0.227552     0.941034  Biso 1.000000    Ca
   Ca   1.0     0.849940     0.727552     0.441042  Biso 1.000000    Ca
   Ca   1.0     0.849938     0.727551     0.941036  Biso 1.000000    Ca
   Ca   1.0     0.150089     0.272410     0.058958  Biso 1.000000    Ca
   Ca   1.0     0.150088     0.272408     0.558953  Biso 1.000000    Ca
   Ca   1.0     0.150107     0.772402     0.058960  Biso 1.000000    Ca
   Ca   1.0     0.150104     0.772404     0.558955  Biso 1.000000    Ca
   Ca   1.0     0.650078     0.272406     0.058958  Biso 1.000000    Ca
   Ca   1.0     0.650078     0.272406     0.558953  Biso 1.000000    Ca
   Ca   1.0     0.650094     0.772404     0.058960  Biso 1.000000    Ca
   Ca   1.0     0.650094     0.772403     0.558954  Biso 1.000000    Ca
