#======================================================================

# CRYSTAL DATA

#----------------------------------------------------------------------

data_VESTA_phase_1


_pd_phase_name                         MOF
_cell_length_a                         13.64000
_cell_length_b                         19.70800
_cell_length_c                         20.36700
_cell_angle_alpha                      105.26800
_cell_angle_beta                       98.56400
_cell_angle_gamma                      115.02600
_symmetry_space_group_name_H-M         "P 1"
_symmetry_Int_Tables_number            1

loop_
_symmetry_equiv_pos_as_xyz
   "x, y, z"

loop_
   _atom_site_label
   _atom_site_occupancy
   _atom_site_fract_x
   _atom_site_fract_y
   _atom_site_fract_z
   _atom_site_adp_type
   _atom_site_B_iso_or_equiv
   _atom_site_type_symbol
    H   1.0     0.261504     0.136513     0.026744  Biso 1.000000     H
    H   1.0     0.261504     0.136520     0.526749  Biso 1.000000     H
    H   1.0     0.261496     0.636502     0.026743  Biso 1.000000     H
    H   1.0     0.261497     0.636508     0.526749  Biso 1.000000     H
    H   1.0     0.761492     0.136515     0.026744  Biso 1.000000     H
    H   1.0     0.761493     0.136522     0.526749  Biso 1.000000     H
    H   1.0     0.761484     0.636504     0.026743  Biso 1.000000     H
    H   1.0     0.761487     0.636510     0.526749  Biso 1.000000     H
    H   1.0     0.349900     0.238694     0.450736  Biso 1.000000     H
    H   1.0     0.349901     0.238700     0.950735  Biso 1.000000     H
    H   1.0     0.349905     0.738690     0.450736  Biso 1.000000     H
    H   1.0     0.349907     0.738695     0.950735  Biso 1.000000     H
    H   1.0     0.849886     0.238698     0.450736  Biso 1.000000     H
    H   1.0     0.849886     0.238704     0.950736  Biso 1.000000     H
    H   1.0     0.849892     0.738694     0.450736  Biso 1.000000     H
    H   1.0     0.849892     0.738699     0.950735  Biso 1.000000     H
    H   1.0     0.078426     0.456370     0.129911  Biso 1.000000     H
    H   1.0     0.078421     0.456371     0.629907  Biso 1.000000     H
    H   1.0     0.078424     0.956368     0.129911  Biso 1.000000     H
    H   1.0     0.078419     0.956369     0.629906  Biso 1.000000     H
    H   1.0     0.578418     0.456370     0.129911  Biso 1.000000     H
    H   1.0     0.578411     0.456371     0.629906  Biso 1.000000     H
    H   1.0     0.578417     0.956368     0.129911  Biso 1.000000     H
    H   1.0     0.578409     0.956370     0.629906  Biso 1.000000     H
    H   1.0     0.083761     0.446508     0.416358  Biso 1.000000     H
    H   1.0     0.083758     0.446510     0.916351  Biso 1.000000     H
    H   1.0     0.083761     0.946508     0.416359  Biso 1.000000     H
    H   1.0     0.083759     0.946510     0.916352  Biso 1.000000     H
    H   1.0     0.583753     0.446512     0.416359  Biso 1.000000     H
    H   1.0     0.583751     0.446513     0.916351  Biso 1.000000     H
    H   1.0     0.583753     0.946510     0.416360  Biso 1.000000     H
    H   1.0     0.583752     0.946511     0.916352  Biso 1.000000     H
    H   1.0     0.238516     0.363506     0.473255  Biso 1.000000     H
    H   1.0     0.238519     0.363512     0.973260  Biso 1.000000     H
    H   1.0     0.238509     0.863495     0.473254  Biso 1.000000     H
    H   1.0     0.238511     0.863501     0.973260  Biso 1.000000     H
    H   1.0     0.738507     0.363508     0.473255  Biso 1.000000     H
    H   1.0     0.738509     0.363514     0.973260  Biso 1.000000     H
    H   1.0     0.738498     0.863497     0.473255  Biso 1.000000     H
    H   1.0     0.738500     0.863503     0.973260  Biso 1.000000     H
    H   1.0     0.150107     0.261318     0.049267  Biso 1.000000     H
    H   1.0     0.150109     0.261323     0.549267  Biso 1.000000     H
    H   1.0     0.150113     0.761313     0.049267  Biso 1.000000     H
    H   1.0     0.150115     0.761318     0.549266  Biso 1.000000     H
    H   1.0     0.650094     0.261321     0.049268  Biso 1.000000     H
    H   1.0     0.650096     0.261327     0.549267  Biso 1.000000     H
    H   1.0     0.650100     0.761317     0.049267  Biso 1.000000     H
    H   1.0     0.650100     0.761323     0.549267  Biso 1.000000     H
    H   1.0     0.421592     0.043647     0.370097  Biso 1.000000     H
    H   1.0     0.421583     0.043648     0.870093  Biso 1.000000     H
    H   1.0     0.421589     0.543645     0.370097  Biso 1.000000     H
    H   1.0     0.421583     0.543646     0.870093  Biso 1.000000     H
    H   1.0     0.921582     0.043647     0.370097  Biso 1.000000     H
    H   1.0     0.921575     0.043648     0.870092  Biso 1.000000     H
    H   1.0     0.921581     0.543645     0.370097  Biso 1.000000     H
    H   1.0     0.921573     0.543646     0.870092  Biso 1.000000     H
    H   1.0     0.416250     0.053506     0.083652  Biso 1.000000     H
    H   1.0     0.416248     0.053507     0.583644  Biso 1.000000     H
    H   1.0     0.416250     0.553505     0.083653  Biso 1.000000     H
    H   1.0     0.416250     0.553506     0.583645  Biso 1.000000     H
    H   1.0     0.916242     0.053508     0.083652  Biso 1.000000     H
    H   1.0     0.916241     0.053510     0.583645  Biso 1.000000     H
    H   1.0     0.916242     0.553508     0.083653  Biso 1.000000     H
    H   1.0     0.916242     0.553509     0.583646  Biso 1.000000     H
    C   1.0     0.462900     0.337834     0.425241  Biso 1.000000     C
    C   1.0     0.462901     0.337837     0.925236  Biso 1.000000     C
    C   1.0     0.462904     0.837830     0.425240  Biso 1.000000     C
    C   1.0     0.462903     0.837834     0.925236  Biso 1.000000     C
    C   1.0     0.962896     0.337834     0.425241  Biso 1.000000     C
    C   1.0     0.962896     0.337838     0.925236  Biso 1.000000     C
    C   1.0     0.962899     0.837831     0.425240  Biso 1.000000     C
    C   1.0     0.962899     0.837835     0.925236  Biso 1.000000     C
    C   1.0     0.417887     0.300706     0.471582  Biso 1.000000     C
    C   1.0     0.417889     0.300710     0.971579  Biso 1.000000     C
    C   1.0     0.417890     0.800702     0.471581  Biso 1.000000     C
    C   1.0     0.417893     0.800706     0.971578  Biso 1.000000     C
    C   1.0     0.917879     0.300707     0.471582  Biso 1.000000     C
    C   1.0     0.917881     0.300712     0.971578  Biso 1.000000     C
    C   1.0     0.917883     0.800703     0.471581  Biso 1.000000     C
    C   1.0     0.917886     0.800708     0.971578  Biso 1.000000     C
    C   1.0     0.461629     0.342936     0.045386  Biso 1.000000     C
    C   1.0     0.461630     0.342938     0.545381  Biso 1.000000     C
    C   1.0     0.461628     0.842931     0.045385  Biso 1.000000     C
    C   1.0     0.461630     0.842932     0.545381  Biso 1.000000     C
    C   1.0     0.961622     0.342937     0.045385  Biso 1.000000     C
    C   1.0     0.961624     0.342938     0.545381  Biso 1.000000     C
    C   1.0     0.961622     0.842932     0.045385  Biso 1.000000     C
    C   1.0     0.961624     0.842933     0.545381  Biso 1.000000     C
    C   1.0     0.046509     0.423515     0.072539  Biso 1.000000     C
    C   1.0     0.046509     0.423517     0.572535  Biso 1.000000     C
    C   1.0     0.046508     0.923510     0.072539  Biso 1.000000     C
    C   1.0     0.046507     0.923512     0.572535  Biso 1.000000     C
    C   1.0     0.546503     0.423516     0.072539  Biso 1.000000     C
    C   1.0     0.546503     0.423518     0.572534  Biso 1.000000     C
    C   1.0     0.546501     0.923511     0.072539  Biso 1.000000     C
    C   1.0     0.546499     0.923513     0.572535  Biso 1.000000     C
    C   1.0     0.089285     0.461447     0.026159  Biso 1.000000     C
    C   1.0     0.089288     0.461451     0.526156  Biso 1.000000     C
    C   1.0     0.089282     0.961443     0.026160  Biso 1.000000     C
    C   1.0     0.089285     0.961446     0.526157  Biso 1.000000     C
    C   1.0     0.589277     0.461449     0.026159  Biso 1.000000     C
    C   1.0     0.589279     0.461453     0.526156  Biso 1.000000     C
    C   1.0     0.589274     0.961444     0.026159  Biso 1.000000     C
    C   1.0     0.589277     0.961447     0.526157  Biso 1.000000     C
    C   1.0     0.049090     0.417805     0.452549  Biso 1.000000     C
    C   1.0     0.049091     0.417809     0.952544  Biso 1.000000     C
    C   1.0     0.049090     0.917802     0.452549  Biso 1.000000     C
    C   1.0     0.049093     0.917806     0.952544  Biso 1.000000     C
    C   1.0     0.549084     0.417807     0.452550  Biso 1.000000     C
    C   1.0     0.549085     0.417810     0.952543  Biso 1.000000     C
    C   1.0     0.549084     0.917804     0.452550  Biso 1.000000     C
    C   1.0     0.549085     0.917807     0.952543  Biso 1.000000     C
    C   1.0     0.420906     0.294018     0.346356  Biso 1.000000     C
    C   1.0     0.420902     0.294020     0.846353  Biso 1.000000     C
    C   1.0     0.420911     0.794016     0.346355  Biso 1.000000     C
    C   1.0     0.420907     0.794017     0.846352  Biso 1.000000     C
    C   1.0     0.920898     0.294017     0.346356  Biso 1.000000     C
    C   1.0     0.920894     0.294019     0.846353  Biso 1.000000     C
    C   1.0     0.920904     0.794014     0.346355  Biso 1.000000     C
    C   1.0     0.920900     0.794017     0.846352  Biso 1.000000     C
    C   1.0     0.418049     0.302866     0.095898  Biso 1.000000     C
    C   1.0     0.418048     0.302870     0.595896  Biso 1.000000     C
    C   1.0     0.418052     0.802861     0.095899  Biso 1.000000     C
    C   1.0     0.418052     0.802865     0.595896  Biso 1.000000     C
    C   1.0     0.918040     0.302867     0.095898  Biso 1.000000     C
    C   1.0     0.918040     0.302872     0.595896  Biso 1.000000     C
    C   1.0     0.918042     0.802863     0.095898  Biso 1.000000     C
    C   1.0     0.918042     0.802867     0.595896  Biso 1.000000     C
    C   1.0     0.176389     0.047772     0.054911  Biso 1.000000     C
    C   1.0     0.176390     0.047776     0.554912  Biso 1.000000     C
    C   1.0     0.176387     0.547760     0.054911  Biso 1.000000     C
    C   1.0     0.176387     0.547764     0.554912  Biso 1.000000     C
    C   1.0     0.676381     0.047773     0.054911  Biso 1.000000     C
    C   1.0     0.676380     0.047777     0.554912  Biso 1.000000     C
    C   1.0     0.676377     0.547761     0.054911  Biso 1.000000     C
    C   1.0     0.676377     0.547766     0.554912  Biso 1.000000     C
    C   1.0     0.037102     0.162183     0.074768  Biso 1.000000     C
    C   1.0     0.037101     0.162186     0.574763  Biso 1.000000     C
    C   1.0     0.037105     0.662180     0.074767  Biso 1.000000     C
    C   1.0     0.037104     0.662183     0.574763  Biso 1.000000     C
    C   1.0     0.537098     0.162183     0.074768  Biso 1.000000     C
    C   1.0     0.537096     0.162187     0.574763  Biso 1.000000     C
    C   1.0     0.537099     0.662180     0.074767  Biso 1.000000     C
    C   1.0     0.537101     0.662183     0.574762  Biso 1.000000     C
    C   1.0     0.082116     0.199309     0.028425  Biso 1.000000     C
    C   1.0     0.082117     0.199314     0.528422  Biso 1.000000     C
    C   1.0     0.082120     0.699304     0.028425  Biso 1.000000     C
    C   1.0     0.082121     0.699310     0.528421  Biso 1.000000     C
    C   1.0     0.582107     0.199310     0.028425  Biso 1.000000     C
    C   1.0     0.582110     0.199316     0.528421  Biso 1.000000     C
    C   1.0     0.582111     0.699306     0.028425  Biso 1.000000     C
    C   1.0     0.582114     0.699311     0.528421  Biso 1.000000     C
    C   1.0     0.038377     0.157083     0.454622  Biso 1.000000     C
    C   1.0     0.038379     0.157084     0.954618  Biso 1.000000     C
    C   1.0     0.038378     0.657078     0.454622  Biso 1.000000     C
    C   1.0     0.038379     0.657079     0.954618  Biso 1.000000     C
    C   1.0     0.538371     0.157084     0.454622  Biso 1.000000     C
    C   1.0     0.538372     0.157085     0.954618  Biso 1.000000     C
    C   1.0     0.538372     0.657078     0.454622  Biso 1.000000     C
    C   1.0     0.538372     0.657081     0.954618  Biso 1.000000     C
    C   1.0     0.453500     0.076504     0.427469  Biso 1.000000     C
    C   1.0     0.453499     0.076506     0.927464  Biso 1.000000     C
    C   1.0     0.453499     0.576499     0.427469  Biso 1.000000     C
    C   1.0     0.453498     0.576501     0.927464  Biso 1.000000     C
    C   1.0     0.953493     0.076505     0.427468  Biso 1.000000     C
    C   1.0     0.953494     0.076506     0.927464  Biso 1.000000     C
    C   1.0     0.953491     0.576500     0.427469  Biso 1.000000     C
    C   1.0     0.953492     0.576501     0.927464  Biso 1.000000     C
    C   1.0     0.410723     0.038570     0.473847  Biso 1.000000     C
    C   1.0     0.410726     0.038573     0.973844  Biso 1.000000     C
    C   1.0     0.410722     0.538564     0.473847  Biso 1.000000     C
    C   1.0     0.410723     0.538568     0.973845  Biso 1.000000     C
    C   1.0     0.910715     0.038571     0.473847  Biso 1.000000     C
    C   1.0     0.910718     0.038574     0.973844  Biso 1.000000     C
    C   1.0     0.910712     0.538566     0.473847  Biso 1.000000     C
    C   1.0     0.910715     0.538569     0.973844  Biso 1.000000     C
    C   1.0     0.450914     0.082210     0.047460  Biso 1.000000     C
    C   1.0     0.450916     0.082214     0.547454  Biso 1.000000     C
    C   1.0     0.450915     0.582207     0.047460  Biso 1.000000     C
    C   1.0     0.450918     0.582210     0.547454  Biso 1.000000     C
    C   1.0     0.950909     0.082211     0.047460  Biso 1.000000     C
    C   1.0     0.950909     0.082215     0.547454  Biso 1.000000     C
    C   1.0     0.950910     0.582209     0.047460  Biso 1.000000     C
    C   1.0     0.950911     0.582212     0.547454  Biso 1.000000     C
    C   1.0     0.079100     0.206001     0.153651  Biso 1.000000     C
    C   1.0     0.079097     0.206003     0.653648  Biso 1.000000     C
    C   1.0     0.079106     0.705998     0.153650  Biso 1.000000     C
    C   1.0     0.079103     0.706001     0.653647  Biso 1.000000     C
    C   1.0     0.579093     0.206000     0.153651  Biso 1.000000     C
    C   1.0     0.579089     0.206002     0.653648  Biso 1.000000     C
    C   1.0     0.579098     0.705997     0.153650  Biso 1.000000     C
    C   1.0     0.579095     0.705999     0.653647  Biso 1.000000     C
    C   1.0     0.081959     0.197149     0.404107  Biso 1.000000     C
    C   1.0     0.081958     0.197153     0.904104  Biso 1.000000     C
    C   1.0     0.081962     0.697144     0.404108  Biso 1.000000     C
    C   1.0     0.081961     0.697148     0.904105  Biso 1.000000     C
    C   1.0     0.581951     0.197151     0.404107  Biso 1.000000     C
    C   1.0     0.581950     0.197154     0.904105  Biso 1.000000     C
    C   1.0     0.581954     0.697146     0.404108  Biso 1.000000     C
    C   1.0     0.581953     0.697150     0.904105  Biso 1.000000     C
    C   1.0     0.323625     0.452251     0.445091  Biso 1.000000     C
    C   1.0     0.323624     0.452255     0.945093  Biso 1.000000     C
    C   1.0     0.323620     0.952240     0.445091  Biso 1.000000     C
    C   1.0     0.323619     0.952243     0.945093  Biso 1.000000     C
    C   1.0     0.823614     0.452253     0.445091  Biso 1.000000     C
    C   1.0     0.823613     0.452257     0.945093  Biso 1.000000     C
    C   1.0     0.823610     0.952241     0.445092  Biso 1.000000     C
    C   1.0     0.823610     0.952245     0.945093  Biso 1.000000     C
    O   1.0     0.493333     0.299890     0.311936  Biso 1.000000     O
    O   1.0     0.493328     0.299892     0.811933  Biso 1.000000     O
    O   1.0     0.493340     0.799891     0.311937  Biso 1.000000     O
    O   1.0     0.493335     0.799891     0.811933  Biso 1.000000     O
    O   1.0     0.993324     0.299887     0.311936  Biso 1.000000     O
    O   1.0     0.993320     0.299889     0.811933  Biso 1.000000     O
    O   1.0     0.993332     0.799887     0.311936  Biso 1.000000     O
    O   1.0     0.993328     0.799889     0.811934  Biso 1.000000     O
    O   1.0     0.314547     0.253135     0.314087  Biso 1.000000     O
    O   1.0     0.314542     0.253137     0.814086  Biso 1.000000     O
    O   1.0     0.314553     0.753133     0.314085  Biso 1.000000     O
    O   1.0     0.314548     0.753135     0.814084  Biso 1.000000     O
    O   1.0     0.814539     0.253137     0.314088  Biso 1.000000     O
    O   1.0     0.814534     0.253137     0.814086  Biso 1.000000     O
    O   1.0     0.814545     0.753134     0.314086  Biso 1.000000     O
    O   1.0     0.814541     0.753136     0.814084  Biso 1.000000     O
    O   1.0     0.340918     0.228363     0.070522  Biso 1.000000     O
    O   1.0     0.340916     0.228368     0.570523  Biso 1.000000     O
    O   1.0     0.340923     0.728358     0.070523  Biso 1.000000     O
    O   1.0     0.340924     0.728362     0.570524  Biso 1.000000     O
    O   1.0     0.840906     0.228365     0.070522  Biso 1.000000     O
    O   1.0     0.840906     0.228370     0.570523  Biso 1.000000     O
    O   1.0     0.840915     0.728359     0.070522  Biso 1.000000     O
    O   1.0     0.840913     0.728364     0.570524  Biso 1.000000     O
    O   1.0     0.457926     0.342402     0.162367  Biso 1.000000     O
    O   1.0     0.457927     0.342409     0.662364  Biso 1.000000     O
    O   1.0     0.457929     0.842399     0.162367  Biso 1.000000     O
    O   1.0     0.457928     0.842407     0.662364  Biso 1.000000     O
    O   1.0     0.957918     0.342402     0.162367  Biso 1.000000     O
    O   1.0     0.957918     0.342410     0.662364  Biso 1.000000     O
    O   1.0     0.957917     0.842401     0.162367  Biso 1.000000     O
    O   1.0     0.957920     0.842407     0.662364  Biso 1.000000     O
    O   1.0     0.204828     0.076800     0.004756  Biso 1.000000     O
    O   1.0     0.204829     0.076807     0.504759  Biso 1.000000     O
    O   1.0     0.204819     0.576789     0.004755  Biso 1.000000     O
    O   1.0     0.204822     0.576795     0.504758  Biso 1.000000     O
    O   1.0     0.704816     0.076802     0.004756  Biso 1.000000     O
    O   1.0     0.704818     0.076808     0.504759  Biso 1.000000     O
    O   1.0     0.704807     0.576791     0.004755  Biso 1.000000     O
    O   1.0     0.704811     0.576797     0.504759  Biso 1.000000     O
    O   1.0     0.217709     0.088517     0.119947  Biso 1.000000     O
    O   1.0     0.217705     0.088518     0.619949  Biso 1.000000     O
    O   1.0     0.217703     0.588507     0.119946  Biso 1.000000     O
    O   1.0     0.217698     0.588509     0.619948  Biso 1.000000     O
    O   1.0     0.717698     0.088519     0.119947  Biso 1.000000     O
    O   1.0     0.717693     0.088520     0.619949  Biso 1.000000     O
    O   1.0     0.717691     0.588509     0.119946  Biso 1.000000     O
    O   1.0     0.717690     0.588510     0.619949  Biso 1.000000     O
    O   1.0     0.006672     0.200128     0.188070  Biso 1.000000     O
    O   1.0     0.006668     0.200131     0.688066  Biso 1.000000     O
    O   1.0     0.006680     0.700128     0.188071  Biso 1.000000     O
    O   1.0     0.006676     0.700131     0.688067  Biso 1.000000     O
    O   1.0     0.506665     0.200126     0.188070  Biso 1.000000     O
    O   1.0     0.506660     0.200127     0.688066  Biso 1.000000     O
    O   1.0     0.506672     0.700125     0.188071  Biso 1.000000     O
    O   1.0     0.506668     0.700126     0.688067  Biso 1.000000     O
    O   1.0     0.185459     0.246881     0.185918  Biso 1.000000     O
    O   1.0     0.185455     0.246884     0.685917  Biso 1.000000     O
    O   1.0     0.185465     0.746879     0.185916  Biso 1.000000     O
    O   1.0     0.185462     0.746882     0.685915  Biso 1.000000     O
    O   1.0     0.685452     0.246883     0.185919  Biso 1.000000     O
    O   1.0     0.685447     0.246885     0.685918  Biso 1.000000     O
    O   1.0     0.685457     0.746880     0.185917  Biso 1.000000     O
    O   1.0     0.685453     0.746882     0.685916  Biso 1.000000     O
    O   1.0     0.159089     0.271652     0.429480  Biso 1.000000     O
    O   1.0     0.159086     0.271657     0.929482  Biso 1.000000     O
    O   1.0     0.159095     0.771646     0.429481  Biso 1.000000     O
    O   1.0     0.159093     0.771651     0.929482  Biso 1.000000     O
    O   1.0     0.659080     0.271654     0.429480  Biso 1.000000     O
    O   1.0     0.659076     0.271659     0.929481  Biso 1.000000     O
    O   1.0     0.659082     0.771649     0.429481  Biso 1.000000     O
    O   1.0     0.659084     0.771653     0.929482  Biso 1.000000     O
    O   1.0     0.042079     0.157609     0.337639  Biso 1.000000     O
    O   1.0     0.042085     0.157615     0.837636  Biso 1.000000     O
    O   1.0     0.042082     0.657607     0.337639  Biso 1.000000     O
    O   1.0     0.042087     0.657613     0.837636  Biso 1.000000     O
    O   1.0     0.542071     0.157610     0.337639  Biso 1.000000     O
    O   1.0     0.542074     0.157616     0.837636  Biso 1.000000     O
    O   1.0     0.542078     0.657606     0.337639  Biso 1.000000     O
    O   1.0     0.542076     0.657614     0.837636  Biso 1.000000     O
    O   1.0     0.295192     0.423219     0.495245  Biso 1.000000     O
    O   1.0     0.295196     0.423225     0.995248  Biso 1.000000     O
    O   1.0     0.295184     0.923208     0.495244  Biso 1.000000     O
    O   1.0     0.295187     0.923214     0.995248  Biso 1.000000     O
    O   1.0     0.795181     0.423222     0.495246  Biso 1.000000     O
    O   1.0     0.795185     0.423227     0.995248  Biso 1.000000     O
    O   1.0     0.795174     0.923210     0.495245  Biso 1.000000     O
    O   1.0     0.795176     0.923216     0.995248  Biso 1.000000     O
    O   1.0     0.282308     0.411508     0.380055  Biso 1.000000     O
    O   1.0     0.282307     0.411508     0.880057  Biso 1.000000     O
    O   1.0     0.282303     0.911498     0.380054  Biso 1.000000     O
    O   1.0     0.282301     0.911498     0.880057  Biso 1.000000     O
    O   1.0     0.782299     0.411510     0.380055  Biso 1.000000     O
    O   1.0     0.782298     0.411509     0.880057  Biso 1.000000     O
    O   1.0     0.782292     0.911500     0.380055  Biso 1.000000     O
    O   1.0     0.782289     0.911500     0.880057  Biso 1.000000     O
   Ca   1.0     0.350009     0.227599     0.190941  Biso 1.000000    Ca
   Ca   1.0     0.350007     0.227604     0.690939  Biso 1.000000    Ca
   Ca   1.0     0.350014     0.727596     0.190940  Biso 1.000000    Ca
   Ca   1.0     0.350012     0.727600     0.690939  Biso 1.000000    Ca
   Ca   1.0     0.850003     0.227599     0.190940  Biso 1.000000    Ca
   Ca   1.0     0.850001     0.227603     0.690939  Biso 1.000000    Ca
   Ca   1.0     0.850008     0.727596     0.190940  Biso 1.000000    Ca
   Ca   1.0     0.850007     0.727600     0.690939  Biso 1.000000    Ca
   Ca   1.0     0.149993     0.272417     0.309064  Biso 1.000000    Ca
   Ca   1.0     0.149992     0.272421     0.809064  Biso 1.000000    Ca
   Ca   1.0     0.149998     0.772413     0.309064  Biso 1.000000    Ca
   Ca   1.0     0.149997     0.772418     0.809063  Biso 1.000000    Ca
   Ca   1.0     0.649988     0.272417     0.309064  Biso 1.000000    Ca
   Ca   1.0     0.649986     0.272421     0.809063  Biso 1.000000    Ca
   Ca   1.0     0.649993     0.772414     0.309064  Biso 1.000000    Ca
   Ca   1.0     0.649991     0.772418     0.809063  Biso 1.000000    Ca
