#======================================================================

# CRYSTAL DATA

#----------------------------------------------------------------------

data_VESTA_phase_1


_pd_phase_name                         MOF
_cell_length_a                         13.51300
_cell_length_b                         14.37300
_cell_length_c                         14.30700
_cell_angle_alpha                      89.99800
_cell_angle_beta                       90.00100
_cell_angle_gamma                      89.99300
_symmetry_space_group_name_H-M         "P 1"
_symmetry_Int_Tables_number            1

loop_
_symmetry_equiv_pos_as_xyz
   "x, y, z"

loop_
   _atom_site_label
   _atom_site_occupancy
   _atom_site_fract_x
   _atom_site_fract_y
   _atom_site_fract_z
   _atom_site_adp_type
   _atom_site_B_iso_or_equiv
   _atom_site_type_symbol
    H   1.0     0.342978     0.250122     0.395222  Biso 1.000000     H
    H   1.0     0.342987     0.250135     0.895151  Biso 1.000000     H
    H   1.0     0.342981     0.750082     0.395222  Biso 1.000000     H
    H   1.0     0.342983     0.750110     0.895152  Biso 1.000000     H
    H   1.0     0.842963     0.250150     0.395216  Biso 1.000000     H
    H   1.0     0.842973     0.250158     0.895157  Biso 1.000000     H
    H   1.0     0.842967     0.750060     0.395217  Biso 1.000000     H
    H   1.0     0.842969     0.750040     0.895156  Biso 1.000000     H
    H   1.0     0.157001     0.249887     0.395222  Biso 1.000000     H
    H   1.0     0.157007     0.249903     0.895151  Biso 1.000000     H
    H   1.0     0.157005     0.749851     0.395221  Biso 1.000000     H
    H   1.0     0.157003     0.749881     0.895152  Biso 1.000000     H
    H   1.0     0.656988     0.249918     0.395217  Biso 1.000000     H
    H   1.0     0.656993     0.249927     0.895157  Biso 1.000000     H
    H   1.0     0.656991     0.749830     0.395217  Biso 1.000000     H
    H   1.0     0.656989     0.749814     0.895156  Biso 1.000000     H
    H   1.0     0.156994     0.249908     0.104868  Biso 1.000000     H
    H   1.0     0.157004     0.249881     0.604797  Biso 1.000000     H
    H   1.0     0.156998     0.749848     0.104867  Biso 1.000000     H
    H   1.0     0.157000     0.749800     0.604798  Biso 1.000000     H
    H   1.0     0.656980     0.249901     0.104862  Biso 1.000000     H
    H   1.0     0.656990     0.249910     0.604803  Biso 1.000000     H
    H   1.0     0.656984     0.749919     0.104863  Biso 1.000000     H
    H   1.0     0.656986     0.749950     0.604802  Biso 1.000000     H
    H   1.0     0.342974     0.250140     0.104868  Biso 1.000000     H
    H   1.0     0.342980     0.250116     0.604797  Biso 1.000000     H
    H   1.0     0.342978     0.750076     0.104868  Biso 1.000000     H
    H   1.0     0.342976     0.750032     0.604798  Biso 1.000000     H
    H   1.0     0.842960     0.250130     0.104862  Biso 1.000000     H
    H   1.0     0.842966     0.250143     0.604803  Biso 1.000000     H
    H   1.0     0.842964     0.750146     0.104863  Biso 1.000000     H
    H   1.0     0.842962     0.750179     0.604802  Biso 1.000000     H
    C   1.0     0.301225     0.250037     0.330336  Biso 1.000000     C
    C   1.0     0.301233     0.250040     0.830267  Biso 1.000000     C
    C   1.0     0.301229     0.750002     0.330336  Biso 1.000000     C
    C   1.0     0.301229     0.750018     0.830267  Biso 1.000000     C
    C   1.0     0.801211     0.250055     0.330331  Biso 1.000000     C
    C   1.0     0.801219     0.250065     0.830273  Biso 1.000000     C
    C   1.0     0.801215     0.749999     0.330331  Biso 1.000000     C
    C   1.0     0.801215     0.749987     0.830271  Biso 1.000000     C
    C   1.0     0.499935     0.098279     0.401214  Biso 1.000000     C
    C   1.0     0.499940     0.098275     0.901191  Biso 1.000000     C
    C   1.0     0.499946     0.598273     0.401212  Biso 1.000000     C
    C   1.0     0.499944     0.598269     0.901189  Biso 1.000000     C
    C   1.0     0.999909     0.098279     0.401215  Biso 1.000000     C
    C   1.0     0.999924     0.098274     0.901191  Biso 1.000000     C
    C   1.0     0.999911     0.598273     0.401212  Biso 1.000000     C
    C   1.0     0.999927     0.598268     0.901191  Biso 1.000000     C
    C   1.0     0.198751     0.249973     0.330336  Biso 1.000000     C
    C   1.0     0.198759     0.249981     0.830267  Biso 1.000000     C
    C   1.0     0.198755     0.749939     0.330336  Biso 1.000000     C
    C   1.0     0.198755     0.749948     0.830267  Biso 1.000000     C
    C   1.0     0.698737     0.249995     0.330331  Biso 1.000000     C
    C   1.0     0.698745     0.250001     0.830273  Biso 1.000000     C
    C   1.0     0.698741     0.749941     0.330331  Biso 1.000000     C
    C   1.0     0.698741     0.749937     0.830271  Biso 1.000000     C
    C   1.0     0.000048     0.401722     0.401214  Biso 1.000000     C
    C   1.0     0.000051     0.401727     0.901192  Biso 1.000000     C
    C   1.0     0.000052     0.901716     0.401216  Biso 1.000000     C
    C   1.0     0.000048     0.901720     0.901191  Biso 1.000000     C
    C   1.0     0.500036     0.401722     0.401215  Biso 1.000000     C
    C   1.0     0.500023     0.401727     0.901191  Biso 1.000000     C
    C   1.0     0.500030     0.901717     0.401216  Biso 1.000000     C
    C   1.0     0.500019     0.901722     0.901193  Biso 1.000000     C
    C   1.0     0.198748     0.249984     0.169752  Biso 1.000000     C
    C   1.0     0.198756     0.249970     0.669683  Biso 1.000000     C
    C   1.0     0.198752     0.749937     0.169752  Biso 1.000000     C
    C   1.0     0.198752     0.749905     0.669684  Biso 1.000000     C
    C   1.0     0.698734     0.249986     0.169747  Biso 1.000000     C
    C   1.0     0.698742     0.249992     0.669689  Biso 1.000000     C
    C   1.0     0.698738     0.749987     0.169748  Biso 1.000000     C
    C   1.0     0.698738     0.750010     0.669688  Biso 1.000000     C
    C   1.0     0.000045     0.401726     0.098827  Biso 1.000000     C
    C   1.0     0.000049     0.401722     0.598804  Biso 1.000000     C
    C   1.0     0.000051     0.901722     0.098827  Biso 1.000000     C
    C   1.0     0.000057     0.901716     0.598806  Biso 1.000000     C
    C   1.0     0.500024     0.401728     0.098828  Biso 1.000000     C
    C   1.0     0.500039     0.401723     0.598806  Biso 1.000000     C
    C   1.0     0.500016     0.901724     0.098828  Biso 1.000000     C
    C   1.0     0.500022     0.901719     0.598806  Biso 1.000000     C
    C   1.0     0.301223     0.250047     0.169752  Biso 1.000000     C
    C   1.0     0.301230     0.250030     0.669683  Biso 1.000000     C
    C   1.0     0.301227     0.749999     0.169752  Biso 1.000000     C
    C   1.0     0.301226     0.749975     0.669683  Biso 1.000000     C
    C   1.0     0.801208     0.250045     0.169747  Biso 1.000000     C
    C   1.0     0.801216     0.250057     0.669689  Biso 1.000000     C
    C   1.0     0.801212     0.750044     0.169747  Biso 1.000000     C
    C   1.0     0.801212     0.750061     0.669688  Biso 1.000000     C
    C   1.0     0.499933     0.098276     0.098826  Biso 1.000000     C
    C   1.0     0.499936     0.098280     0.598804  Biso 1.000000     C
    C   1.0     0.499947     0.598272     0.098825  Biso 1.000000     C
    C   1.0     0.499951     0.598276     0.598804  Biso 1.000000     C
    C   1.0     0.999925     0.098274     0.098826  Biso 1.000000     C
    C   1.0     0.999912     0.098279     0.598805  Biso 1.000000     C
    C   1.0     0.999924     0.598270     0.098826  Biso 1.000000     C
    C   1.0     0.999904     0.598273     0.598803  Biso 1.000000     C
    N   1.0     0.499951     0.156503     0.343804  Biso 1.000000     N
    N   1.0     0.499960     0.156476     0.843756  Biso 1.000000     N
    N   1.0     0.499959     0.656494     0.343800  Biso 1.000000     N
    N   1.0     0.499961     0.656468     0.843751  Biso 1.000000     N
    N   1.0     0.999926     0.156502     0.343804  Biso 1.000000     N
    N   1.0     0.999940     0.156476     0.843756  Biso 1.000000     N
    N   1.0     0.999929     0.656493     0.343800  Biso 1.000000     N
    N   1.0     0.999938     0.656466     0.843753  Biso 1.000000     N
    N   1.0     0.000032     0.343502     0.343803  Biso 1.000000     N
    N   1.0     0.000039     0.343530     0.843755  Biso 1.000000     N
    N   1.0     0.000037     0.843494     0.343807  Biso 1.000000     N
    N   1.0     0.000036     0.843520     0.843757  Biso 1.000000     N
    N   1.0     0.500016     0.343503     0.343804  Biso 1.000000     N
    N   1.0     0.500011     0.343530     0.843755  Biso 1.000000     N
    N   1.0     0.500014     0.843495     0.343809  Biso 1.000000     N
    N   1.0     0.500006     0.843522     0.843760  Biso 1.000000     N
    N   1.0     0.000027     0.343527     0.156264  Biso 1.000000     N
    N   1.0     0.000038     0.343501     0.656216  Biso 1.000000     N
    N   1.0     0.000034     0.843521     0.156264  Biso 1.000000     N
    N   1.0     0.000041     0.843493     0.656216  Biso 1.000000     N
    N   1.0     0.500006     0.343529     0.156265  Biso 1.000000     N
    N   1.0     0.500019     0.343502     0.656218  Biso 1.000000     N
    N   1.0     0.500003     0.843523     0.156264  Biso 1.000000     N
    N   1.0     0.500006     0.843496     0.656215  Biso 1.000000     N
    N   1.0     0.499949     0.156475     0.156260  Biso 1.000000     N
    N   1.0     0.499957     0.156502     0.656212  Biso 1.000000     N
    N   1.0     0.499960     0.656469     0.156261  Biso 1.000000     N
    N   1.0     0.499963     0.656495     0.656215  Biso 1.000000     N
    N   1.0     0.999935     0.156473     0.156260  Biso 1.000000     N
    N   1.0     0.999929     0.156500     0.656214  Biso 1.000000     N
    N   1.0     0.999935     0.656468     0.156261  Biso 1.000000     N
    N   1.0     0.999920     0.656492     0.656214  Biso 1.000000     N
    N   1.0     0.354121     0.250085     0.250047  Biso 1.000000     N
    N   1.0     0.354129     0.250082     0.749972  Biso 1.000000     N
    N   1.0     0.354125     0.750050     0.250047  Biso 1.000000     N
    N   1.0     0.354125     0.750041     0.749973  Biso 1.000000     N
    N   1.0     0.854107     0.250092     0.250041  Biso 1.000000     N
    N   1.0     0.854115     0.250097     0.749978  Biso 1.000000     N
    N   1.0     0.854111     0.750071     0.250042  Biso 1.000000     N
    N   1.0     0.854111     0.750079     0.749977  Biso 1.000000     N
    N   1.0     0.145853     0.249930     0.250047  Biso 1.000000     N
    N   1.0     0.145860     0.249924     0.749972  Biso 1.000000     N
    N   1.0     0.145856     0.749901     0.250046  Biso 1.000000     N
    N   1.0     0.145856     0.749898     0.749973  Biso 1.000000     N
    N   1.0     0.645839     0.249939     0.250042  Biso 1.000000     N
    N   1.0     0.645846     0.249947     0.749978  Biso 1.000000     N
    N   1.0     0.645842     0.749918     0.250042  Biso 1.000000     N
    N   1.0     0.645842     0.749920     0.749977  Biso 1.000000     N
   Fe   1.0     0.999966     0.250003     0.250049  Biso 1.000000    Fe
   Fe   1.0     0.999973     0.250004     0.749970  Biso 1.000000    Fe
   Fe   1.0     0.999970     0.749992     0.250049  Biso 1.000000    Fe
   Fe   1.0     0.999970     0.749990     0.749969  Biso 1.000000    Fe
   Fe   1.0     0.499980     0.250004     0.250049  Biso 1.000000    Fe
   Fe   1.0     0.499987     0.250003     0.749970  Biso 1.000000    Fe
   Fe   1.0     0.499984     0.749994     0.250049  Biso 1.000000    Fe
   Fe   1.0     0.499984     0.749995     0.749969  Biso 1.000000    Fe
   Pt   1.0     0.000002     0.000000     0.000007  Biso 1.000000    Pt
   Pt   1.0    -0.000007    -0.000000     0.500011  Biso 1.000000    Pt
   Pt   1.0    -0.000001     0.499997     0.000000  Biso 1.000000    Pt
   Pt   1.0    -0.000009     0.499997     0.500008  Biso 1.000000    Pt
   Pt   1.0     0.499976     0.000002     0.000008  Biso 1.000000    Pt
   Pt   1.0     0.499977     0.000002     0.500010  Biso 1.000000    Pt
   Pt   1.0     0.499981     0.499999     0.000000  Biso 1.000000    Pt
   Pt   1.0     0.499994     0.499999     0.500009  Biso 1.000000    Pt
