#======================================================================

# CRYSTAL DATA

#----------------------------------------------------------------------

data_VESTA_phase_1


_pd_phase_name                         MOF
_cell_length_a                         12.57500
_cell_length_b                         12.86700
_cell_length_c                         14.51400
_cell_angle_alpha                      91.36800
_cell_angle_beta                       91.33600
_cell_angle_gamma                      86.10500
_symmetry_space_group_name_H-M         "P 1"
_symmetry_Int_Tables_number            1

loop_
_symmetry_equiv_pos_as_xyz
   "x, y, z"

loop_
   _atom_site_label
   _atom_site_occupancy
   _atom_site_fract_x
   _atom_site_fract_y
   _atom_site_fract_z
   _atom_site_adp_type
   _atom_site_B_iso_or_equiv
   _atom_site_type_symbol
    H   1.0     0.823709     0.546106     0.509986  Biso 1.000000     H
    H   1.0     0.768105     0.449797     0.116115  Biso 1.000000     H
    H   1.0     0.712926     0.487181     0.954617  Biso 1.000000     H
    H   1.0     0.027359     0.368032     0.872885  Biso 1.000000     H
    H   1.0     0.068951     0.331423     0.038743  Biso 1.000000     H
    H   1.0     0.406469     0.440877     0.641741  Biso 1.000000     H
    H   1.0     0.259076     0.578545     0.640755  Biso 1.000000     H
    H   1.0     0.455490     0.172005     0.989694  Biso 1.000000     H
    H   1.0     0.538989     0.229724     0.381704  Biso 1.000000     H
    H   1.0     0.504947     0.283744     0.544015  Biso 1.000000     H
    H   1.0     0.638908     0.980071     0.624454  Biso 1.000000     H
    H   1.0     0.670976     0.939017     0.457907  Biso 1.000000     H
    H   1.0     0.564723     0.588925     0.857418  Biso 1.000000     H
    H   1.0     0.429460     0.737862     0.859194  Biso 1.000000     H
    H   1.0     0.172106     0.458440     0.490029  Biso 1.000000     H
    H   1.0     0.232459     0.549262     0.882484  Biso 1.000000     H
    H   1.0     0.287378     0.512493     0.044132  Biso 1.000000     H
    H   1.0     0.972501     0.631122     0.125051  Biso 1.000000     H
    H   1.0     0.931327     0.667450     0.959144  Biso 1.000000     H
    H   1.0     0.594327     0.559528     0.357448  Biso 1.000000     H
    H   1.0     0.742233     0.422249     0.357561  Biso 1.000000     H
    H   1.0     0.549569     0.824601     0.011191  Biso 1.000000     H
    H   1.0     0.461525     0.770509     0.618241  Biso 1.000000     H
    H   1.0     0.495920     0.716243     0.456058  Biso 1.000000     H
    H   1.0     0.360950     0.019335     0.374984  Biso 1.000000     H
    H   1.0     0.328654     0.060685     0.541439  Biso 1.000000     H
    H   1.0     0.433532     0.409622     0.144399  Biso 1.000000     H
    H   1.0     0.569470     0.261166     0.141806  Biso 1.000000     H
    H   1.0    -0.002224     0.000000     0.748892  Biso 1.000000     H
    H   1.0     0.000000    -0.010461     0.253472  Biso 1.000000     H
    C   1.0     0.847590     0.465114     0.804117  Biso 1.000000     C
    C   1.0     0.877974     0.522023     0.667875  Biso 1.000000     C
    C   1.0     0.780791     0.476690     0.664564  Biso 1.000000     C
    C   1.0     0.936949     0.575635     0.599210  Biso 1.000000     C
    C   1.0     0.704352     0.460574     0.587152  Biso 1.000000     C
    C   1.0     0.823781     0.433372     0.060365  Biso 1.000000     C
    C   1.0     0.793475     0.455119     0.969832  Biso 1.000000     C
    C   1.0     0.868177     0.435635     0.900235  Biso 1.000000     C
    C   1.0     0.968461     0.388458     0.925209  Biso 1.000000     C
    C   1.0     0.991978     0.367964     0.017065  Biso 1.000000     C
    C   1.0     0.089805     0.833946     0.754733  Biso 1.000000     C
    C   1.0    -0.026968     0.845924     0.766124  Biso 1.000000     C
    C   1.0     0.407161     0.506090     0.690858  Biso 1.000000     C
    C   1.0     0.324889     0.583656     0.690311  Biso 1.000000     C
    C   1.0     0.535154     0.152834     0.694646  Biso 1.000000     C
    C   1.0     0.479494     0.120472     0.831247  Biso 1.000000     C
    C   1.0     0.522285     0.217201     0.834461  Biso 1.000000     C
    C   1.0     0.427081     0.060987     0.900106  Biso 1.000000     C
    C   1.0     0.536207     0.292173     0.912080  Biso 1.000000     C
    C   1.0     0.559250     0.176033     0.437358  Biso 1.000000     C
    C   1.0     0.539421     0.205714     0.528359  Biso 1.000000     C
    C   1.0     0.563763     0.133612     0.597953  Biso 1.000000     C
    C   1.0     0.614174     0.036721     0.572318  Biso 1.000000     C
    C   1.0     0.632339     0.013568     0.479986  Biso 1.000000     C
    C   1.0     0.165018     0.907537     0.746363  Biso 1.000000     C
    C   1.0     0.153534     0.000000     0.734149  Biso 1.000000     C
    C   1.0     0.497671     0.590775     0.808557  Biso 1.000000     C
    C   1.0     0.421451     0.674073     0.809462  Biso 1.000000     C
    C   1.0     0.152133     0.534722     0.194574  Biso 1.000000     C
    C   1.0     0.120443     0.479172     0.331109  Biso 1.000000     C
    C   1.0     0.217522     0.524738     0.334713  Biso 1.000000     C
    C   1.0     0.060721     0.426393     0.399894  Biso 1.000000     C
    C   1.0     0.293295     0.541511     0.412519  Biso 1.000000     C
    C   1.0     0.176575     0.565706     0.938075  Biso 1.000000     C
    C   1.0     0.206768     0.544297     0.028735  Biso 1.000000     C
    C   1.0     0.131885     0.563692     0.098215  Biso 1.000000     C
    C   1.0     0.031616     0.610702     0.072904  Biso 1.000000     C
    C   1.0     0.008274     0.630952     0.980952  Biso 1.000000     C
    C   1.0     0.910326     0.166112     0.245030  Biso 1.000000     C
    C   1.0     0.000000     0.154117     0.233971  Biso 1.000000     C
    C   1.0     0.593181     0.494022     0.308671  Biso 1.000000     C
    C   1.0     0.675650     0.416632     0.308850  Biso 1.000000     C
    C   1.0     0.465404     0.846587     0.305177  Biso 1.000000     C
    C   1.0     0.522408     0.878034     0.168828  Biso 1.000000     C
    C   1.0     0.479530     0.781355     0.165720  Biso 1.000000     C
    C   1.0     0.575189     0.937212     0.100013  Biso 1.000000     C
    C   1.0     0.466141     0.705878     0.088358  Biso 1.000000     C
    C   1.0     0.441058     0.824007     0.562484  Biso 1.000000     C
    C   1.0     0.461062     0.794174     0.471542  Biso 1.000000     C
    C   1.0     0.436501     0.866034     0.401787  Biso 1.000000     C
    C   1.0     0.385805     0.962854     0.427232  Biso 1.000000     C
    C   1.0     0.367487     0.986160     0.519528  Biso 1.000000     C
    C   1.0     0.835190     0.092523     0.253914  Biso 1.000000     C
    C   1.0     0.846735    -0.019957     0.267196  Biso 1.000000     C
    C   1.0     0.501363     0.408296     0.192436  Biso 1.000000     C
    C   1.0     0.577781     0.325193     0.191218  Biso 1.000000     C
    C   1.0     0.247676     0.754150     0.750378  Biso 1.000000     C
    C   1.0     0.332218     0.670302     0.750009  Biso 1.000000     C
    C   1.0     0.752423     0.245830     0.248933  Biso 1.000000     C
    C   1.0     0.667854     0.329640     0.249600  Biso 1.000000     C
    N   1.0     0.919901     0.514296     0.755778  Biso 1.000000     N
    N   1.0     0.761405     0.441929     0.750942  Biso 1.000000     N
    N   1.0     0.921972     0.392681     0.084640  Biso 1.000000     N
    N   1.0     0.142656     0.737581     0.755869  Biso 1.000000     N
    N   1.0     0.487922     0.080125     0.743176  Biso 1.000000     N
    N   1.0     0.556263     0.237866     0.747941  Biso 1.000000     N
    N   1.0     0.602559     0.080810     0.412537  Biso 1.000000     N
    N   1.0     0.264417     0.856476     0.744960  Biso 1.000000     N
    N   1.0     0.079446     0.485837     0.242815  Biso 1.000000     N
    N   1.0     0.237816     0.558486     0.248165  Biso 1.000000     N
    N   1.0     0.078431     0.606274     0.913480  Biso 1.000000     N
    N   1.0     0.857414     0.262409     0.243159  Biso 1.000000     N
    N   1.0     0.512992     0.919020     0.256622  Biso 1.000000     N
    N   1.0     0.444721     0.761284     0.252095  Biso 1.000000     N
    N   1.0     0.397407     0.919160     0.587130  Biso 1.000000     N
    N   1.0     0.735740     0.143528     0.254940  Biso 1.000000     N
    N   1.0     0.491828     0.508211     0.749777  Biso 1.000000     N
    N   1.0     0.507728     0.491255     0.250683  Biso 1.000000     N
    O   1.0     0.022159     0.614146     0.624083  Biso 1.000000     O
    O   1.0     0.897958     0.582375     0.515169  Biso 1.000000     O
    O   1.0     0.624106     0.409558     0.604778  Biso 1.000000     O
    O   1.0     0.723292     0.498262     0.509326  Biso 1.000000     O
    O   1.0     0.925885     0.763013     0.781295  Biso 1.000000     O
    O   1.0     0.926693     0.936782     0.761592  Biso 1.000000     O
    O   1.0     0.389094     0.976931     0.874954  Biso 1.000000     O
    O   1.0     0.420708     0.097824     0.984420  Biso 1.000000     O
    O   1.0     0.583733     0.373510     0.894518  Biso 1.000000     O
    O   1.0     0.499862     0.271126     0.990217  Biso 1.000000     O
    O   1.0     0.235840     0.068064     0.718738  Biso 1.000000     O
    O   1.0     0.059066     0.067381     0.738018  Biso 1.000000     O
    O   1.0     0.976419     0.386590     0.374636  Biso 1.000000     O
    O   1.0     0.098114     0.421854     0.484585  Biso 1.000000     O
    O   1.0     0.374656     0.590958     0.394894  Biso 1.000000     O
    O   1.0     0.272712     0.505919     0.490781  Biso 1.000000     O
    O   1.0     0.074246     0.236917     0.218214  Biso 1.000000     O
    O   1.0     0.073546     0.063401     0.239384  Biso 1.000000     O
    O   1.0     0.611538     0.022167     0.124773  Biso 1.000000     O
    O   1.0     0.583777     0.899005     0.016227  Biso 1.000000     O
    O   1.0     0.416513     0.625752     0.105601  Biso 1.000000     O
    O   1.0     0.504722     0.725410     0.010725  Biso 1.000000     O
    O   1.0     0.764295     0.932118     0.281940  Biso 1.000000     O
    O   1.0     0.941403     0.932982     0.265106  Biso 1.000000     O
   Zn   1.0     0.027810     0.631097     0.774423  Biso 1.000000    Zn
   Zn   1.0     0.374327     0.968481     0.726056  Biso 1.000000    Zn
   Zn   1.0     0.972327     0.368728     0.223069  Biso 1.000000    Zn
   Zn   1.0     0.625736     0.031493     0.273785  Biso 1.000000    Zn
   Zn   1.0     0.611147     0.386258     0.749869  Biso 1.000000    Zn
   Zn   1.0     0.388660     0.613515     0.250154  Biso 1.000000    Zn
