#======================================================================

# CRYSTAL DATA

#----------------------------------------------------------------------

data_VESTA_phase_1


_pd_phase_name                         MOF
_cell_length_a                         13.41000
_cell_length_b                         22.31200
_cell_length_c                         22.31900
_cell_angle_alpha                      73.10700
_cell_angle_beta                       72.54800
_cell_angle_gamma                      72.59600
_symmetry_space_group_name_H-M         "P 1"
_symmetry_Int_Tables_number            1

loop_
_symmetry_equiv_pos_as_xyz
   "x, y, z"

loop_
   _atom_site_label
   _atom_site_occupancy
   _atom_site_fract_x
   _atom_site_fract_y
   _atom_site_fract_z
   _atom_site_adp_type
   _atom_site_B_iso_or_equiv
   _atom_site_type_symbol
    H   1.0     0.132615     0.058716     0.002658  Biso 1.000000     H
    H   1.0     0.125637     0.245112     0.191649  Biso 1.000000     H
    H   1.0     0.064941     0.248512     0.309012  Biso 1.000000     H
    H   1.0     0.193557     0.441279     0.499496  Biso 1.000000     H
    H   1.0     0.375833     0.441519     0.495022  Biso 1.000000     H
    H   1.0     0.382542     0.253232     0.308397  Biso 1.000000     H
    H   1.0     0.443410     0.249860     0.191015  Biso 1.000000     H
    H   1.0     0.314826     0.058789    -0.001202  Biso 1.000000     H
    H   1.0     0.366911     0.326010     0.448482  Biso 1.000000     H
    H   1.0     0.116744     0.198471     0.075988  Biso 1.000000     H
    H   1.0     0.632527     0.058674     0.002837  Biso 1.000000     H
    H   1.0     0.625560     0.245258     0.191618  Biso 1.000000     H
    H   1.0     0.564871     0.248649     0.308983  Biso 1.000000     H
    H   1.0     0.693480     0.441239     0.499659  Biso 1.000000     H
    H   1.0     0.875717     0.441457     0.495261  Biso 1.000000     H
    H   1.0     0.882678     0.252864     0.308491  Biso 1.000000     H
    H   1.0     0.943545     0.249491     0.191110  Biso 1.000000     H
    H   1.0     0.814727     0.058735    -0.000993  Biso 1.000000     H
    H   1.0     0.866904     0.325999     0.448466  Biso 1.000000     H
    H   1.0     0.616668     0.198550     0.076019  Biso 1.000000     H
    H   1.0     0.132730     0.558801     0.002365  Biso 1.000000     H
    H   1.0     0.125522     0.745407     0.191580  Biso 1.000000     H
    H   1.0     0.064824     0.748813     0.308943  Biso 1.000000     H
    H   1.0     0.193482     0.941242     0.499677  Biso 1.000000     H
    H   1.0     0.375905     0.941580     0.494829  Biso 1.000000     H
    H   1.0     0.382718     0.752810     0.308506  Biso 1.000000     H
    H   1.0     0.443592     0.749423     0.191128  Biso 1.000000     H
    H   1.0     0.314751     0.558750    -0.001014  Biso 1.000000     H
    H   1.0     0.366914     0.826015     0.448471  Biso 1.000000     H
    H   1.0     0.116737     0.698478     0.075989  Biso 1.000000     H
    H   1.0     0.632730     0.558813     0.002327  Biso 1.000000     H
    H   1.0     0.625531     0.745354     0.191600  Biso 1.000000     H
    H   1.0     0.564836     0.748757     0.308962  Biso 1.000000     H
    H   1.0     0.693321     0.941160     0.500028  Biso 1.000000     H
    H   1.0     0.875756     0.941494     0.495158  Biso 1.000000     H
    H   1.0     0.882717     0.752786     0.308518  Biso 1.000000     H
    H   1.0     0.943590     0.749400     0.191139  Biso 1.000000     H
    H   1.0     0.814659     0.558700    -0.000823  Biso 1.000000     H
    H   1.0     0.866878     0.826023     0.448502  Biso 1.000000     H
    H   1.0     0.616701     0.698490     0.075997  Biso 1.000000     H
    H   1.0     0.132455     0.058607     0.503062  Biso 1.000000     H
    H   1.0     0.125670     0.245037     0.691670  Biso 1.000000     H
    H   1.0     0.064979     0.248439     0.809032  Biso 1.000000     H
    H   1.0     0.193783     0.441408     0.998971  Biso 1.000000     H
    H   1.0     0.375620     0.441370     0.995588  Biso 1.000000     H
    H   1.0     0.382517     0.253319     0.808371  Biso 1.000000     H
    H   1.0     0.443378     0.249950     0.690988  Biso 1.000000     H
    H   1.0     0.315056     0.058925     0.498234  Biso 1.000000     H
    H   1.0     0.366930     0.326004     0.948476  Biso 1.000000     H
    H   1.0     0.116751     0.198456     0.575983  Biso 1.000000     H
    H   1.0     0.632293     0.058525     0.503413  Biso 1.000000     H
    H   1.0     0.625597     0.245181     0.691638  Biso 1.000000     H
    H   1.0     0.564911     0.248576     0.809001  Biso 1.000000     H
    H   1.0     0.693786     0.441421     0.998929  Biso 1.000000     H
    H   1.0     0.875528     0.441318     0.995783  Biso 1.000000     H
    H   1.0     0.882676     0.252902     0.808476  Biso 1.000000     H
    H   1.0     0.943537     0.249531     0.691094  Biso 1.000000     H
    H   1.0     0.814909     0.058841     0.498558  Biso 1.000000     H
    H   1.0     0.866935     0.325988     0.948444  Biso 1.000000     H
    H   1.0     0.616670     0.198542     0.576020  Biso 1.000000     H
    H   1.0     0.132523     0.558665     0.502882  Biso 1.000000     H
    H   1.0     0.125520     0.745423     0.691577  Biso 1.000000     H
    H   1.0     0.064824     0.748829     0.808940  Biso 1.000000     H
    H   1.0     0.193658     0.941344     0.999269  Biso 1.000000     H
    H   1.0     0.375685     0.941431     0.995404  Biso 1.000000     H
    H   1.0     0.382680     0.752922     0.808477  Biso 1.000000     H
    H   1.0     0.443550     0.749539     0.691098  Biso 1.000000     H
    H   1.0     0.314978     0.558885     0.498430  Biso 1.000000     H
    H   1.0     0.366899     0.826026     0.948504  Biso 1.000000     H
    H   1.0     0.116744     0.698470     0.575988  Biso 1.000000     H
    H   1.0     0.632444     0.558625     0.503051  Biso 1.000000     H
    H   1.0     0.625459     0.745556     0.691549  Biso 1.000000     H
    H   1.0     0.564765     0.748963     0.808911  Biso 1.000000     H
    H   1.0     0.693570     0.941302     0.999448  Biso 1.000000     H
    H   1.0     0.875587     0.941376     0.995611  Biso 1.000000     H
    H   1.0     0.882786     0.752644     0.808550  Biso 1.000000     H
    H   1.0     0.943658     0.749256     0.691172  Biso 1.000000     H
    H   1.0     0.814865     0.558826     0.498660  Biso 1.000000     H
    H   1.0     0.866905     0.826009     0.948474  Biso 1.000000     H
    H   1.0     0.616694     0.698511     0.576009  Biso 1.000000     H
    C   1.0     0.077364     0.032380     0.001009  Biso 1.000000     C
    C   1.0     0.181273     0.246636     0.217740  Biso 1.000000     C
    C   1.0     0.147549     0.248703     0.282550  Biso 1.000000     C
    C   1.0     0.111007     0.467548     0.499040  Biso 1.000000     C
    C   1.0     0.431398     0.467692     0.496530  Biso 1.000000     C
    C   1.0     0.327304     0.251349     0.282201  Biso 1.000000     C
    C   1.0     0.360907     0.249283     0.217390  Biso 1.000000     C
    C   1.0     0.397491     0.032440    -0.001161  Biso 1.000000     C
    C   1.0     0.470342     0.065231     0.000962  Biso 1.000000     C
    C   1.0     0.434265     0.134977     0.002841  Biso 1.000000     C
    C   1.0     0.288264     0.246736     0.184674  Biso 1.000000     C
    C   1.0     0.324519     0.244463     0.114998  Biso 1.000000     C
    C   1.0     0.220407     0.251011     0.315208  Biso 1.000000     C
    C   1.0     0.184371     0.252869     0.384957  Biso 1.000000     C
    C   1.0     0.038383     0.434706     0.496646  Biso 1.000000     C
    C   1.0     0.074658     0.365017     0.494416  Biso 1.000000     C
    C   1.0     0.577310     0.032360     0.001105  Biso 1.000000     C
    C   1.0     0.681242     0.246671     0.217736  Biso 1.000000     C
    C   1.0     0.647520     0.248735     0.282547  Biso 1.000000     C
    C   1.0     0.610966     0.467530     0.499117  Biso 1.000000     C
    C   1.0     0.931318     0.467653     0.496677  Biso 1.000000     C
    C   1.0     0.827392     0.251096     0.282267  Biso 1.000000     C
    C   1.0     0.860993     0.249031     0.217456  Biso 1.000000     C
    C   1.0     0.897426     0.032406    -0.001038  Biso 1.000000     C
    C   1.0     0.970323     0.065225     0.000974  Biso 1.000000     C
    C   1.0     0.934250     0.134972     0.002848  Biso 1.000000     C
    C   1.0     0.788284     0.246644     0.184700  Biso 1.000000     C
    C   1.0     0.824515     0.244421     0.115011  Biso 1.000000     C
    C   1.0     0.720432     0.250915     0.315235  Biso 1.000000     C
    C   1.0     0.684376     0.252821     0.384973  Biso 1.000000     C
    C   1.0     0.538387     0.434716     0.496614  Biso 1.000000     C
    C   1.0     0.574655     0.365023     0.494396  Biso 1.000000     C
    C   1.0     0.077440     0.532439     0.000818  Biso 1.000000     C
    C   1.0     0.181221     0.746771     0.217711  Biso 1.000000     C
    C   1.0     0.147496     0.748843     0.282520  Biso 1.000000     C
    C   1.0     0.110959     0.967528     0.499157  Biso 1.000000     C
    C   1.0     0.431422     0.967722     0.496459  Biso 1.000000     C
    C   1.0     0.327415     0.751085     0.282271  Biso 1.000000     C
    C   1.0     0.361020     0.749013     0.217462  Biso 1.000000     C
    C   1.0     0.397478     0.532439    -0.001127  Biso 1.000000     C
    C   1.0     0.470397     0.565274     0.000826  Biso 1.000000     C
    C   1.0     0.434290     0.635002     0.002778  Biso 1.000000     C
    C   1.0     0.288290     0.746676     0.184694  Biso 1.000000     C
    C   1.0     0.324529     0.744432     0.115010  Biso 1.000000     C
    C   1.0     0.220432     0.750962     0.315225  Biso 1.000000     C
    C   1.0     0.184381     0.752856     0.384965  Biso 1.000000     C
    C   1.0     0.038368     0.934708     0.496680  Biso 1.000000     C
    C   1.0     0.074649     0.865023     0.494431  Biso 1.000000     C
    C   1.0     0.577452     0.532458     0.000750  Biso 1.000000     C
    C   1.0     0.681228     0.746727     0.217728  Biso 1.000000     C
    C   1.0     0.647504     0.748797     0.282537  Biso 1.000000     C
    C   1.0     0.610862     0.967483     0.499358  Biso 1.000000     C
    C   1.0     0.931332     0.967674     0.496638  Biso 1.000000     C
    C   1.0     0.827416     0.751056     0.282283  Biso 1.000000     C
    C   1.0     0.861020     0.748985     0.217474  Biso 1.000000     C
    C   1.0     0.897400     0.532399    -0.000973  Biso 1.000000     C
    C   1.0     0.970344     0.565248     0.000920  Biso 1.000000     C
    C   1.0     0.934258     0.634988     0.002823  Biso 1.000000     C
    C   1.0     0.788291     0.746646     0.184706  Biso 1.000000     C
    C   1.0     0.824521     0.744419     0.115018  Biso 1.000000     C
    C   1.0     0.720435     0.750929     0.315238  Biso 1.000000     C
    C   1.0     0.684375     0.752839     0.384975  Biso 1.000000     C
    C   1.0     0.538351     0.934710     0.496689  Biso 1.000000     C
    C   1.0     0.574636     0.865026     0.494434  Biso 1.000000     C
    C   1.0     0.077279     0.032320     0.501224  Biso 1.000000     C
    C   1.0     0.181293     0.246598     0.717750  Biso 1.000000     C
    C   1.0     0.147571     0.248665     0.782560  Biso 1.000000     C
    C   1.0     0.111137     0.467618     0.998749  Biso 1.000000     C
    C   1.0     0.431296     0.467618     0.996807  Biso 1.000000     C
    C   1.0     0.327291     0.251401     0.782185  Biso 1.000000     C
    C   1.0     0.360892     0.249337     0.717374  Biso 1.000000     C
    C   1.0     0.397619     0.032514     0.498526  Biso 1.000000     C
    C   1.0     0.470341     0.065225     0.500966  Biso 1.000000     C
    C   1.0     0.434263     0.134972     0.502843  Biso 1.000000     C
    C   1.0     0.288265     0.246742     0.684672  Biso 1.000000     C
    C   1.0     0.324522     0.244463     0.614997  Biso 1.000000     C
    C   1.0     0.220415     0.251017     0.815205  Biso 1.000000     C
    C   1.0     0.184384     0.252868     0.884956  Biso 1.000000     C
    C   1.0     0.038397     0.434703     0.996642  Biso 1.000000     C
    C   1.0     0.074670     0.365014     0.994413  Biso 1.000000     C
    C   1.0     0.577178     0.032274     0.501427  Biso 1.000000     C
    C   1.0     0.681270     0.246622     0.717747  Biso 1.000000     C
    C   1.0     0.647550     0.248687     0.782558  Biso 1.000000     C
    C   1.0     0.611151     0.467638     0.998678  Biso 1.000000     C
    C   1.0     0.931217     0.467577     0.996963  Biso 1.000000     C
    C   1.0     0.827399     0.251110     0.782259  Biso 1.000000     C
    C   1.0     0.860997     0.249045     0.717448  Biso 1.000000     C
    C   1.0     0.897532     0.032465     0.498703  Biso 1.000000     C
    C   1.0     0.970333     0.065223     0.500955  Biso 1.000000     C
    C   1.0     0.934255     0.134969     0.502838  Biso 1.000000     C
    C   1.0     0.788297     0.246628     0.684702  Biso 1.000000     C
    C   1.0     0.824526     0.244409     0.615012  Biso 1.000000     C
    C   1.0     0.720451     0.250900     0.815236  Biso 1.000000     C
    C   1.0     0.684396     0.252811     0.884972  Biso 1.000000     C
    C   1.0     0.538424     0.434730     0.996543  Biso 1.000000     C
    C   1.0     0.574675     0.365028     0.994363  Biso 1.000000     C
    C   1.0     0.077323     0.532361     0.501108  Biso 1.000000     C
    C   1.0     0.181211     0.746808     0.717702  Biso 1.000000     C
    C   1.0     0.147488     0.748880     0.782512  Biso 1.000000     C
    C   1.0     0.111056     0.967581     0.998941  Biso 1.000000     C
    C   1.0     0.431303     0.967640     0.996775  Biso 1.000000     C
    C   1.0     0.327385     0.751177     0.782247  Biso 1.000000     C
    C   1.0     0.360988     0.749106     0.717438  Biso 1.000000     C
    C   1.0     0.397591     0.532504     0.498599  Biso 1.000000     C
    C   1.0     0.470372     0.565251     0.500897  Biso 1.000000     C
    C   1.0     0.434279     0.634988     0.502815  Biso 1.000000     C
    C   1.0     0.288272     0.746733     0.684680  Biso 1.000000     C
    C   1.0     0.324525     0.744459     0.615003  Biso 1.000000     C
    C   1.0     0.220417     0.751016     0.815211  Biso 1.000000     C
    C   1.0     0.184380     0.752879     0.884959  Biso 1.000000     C
    C   1.0     0.038369     0.934701     0.996699  Biso 1.000000     C
    C   1.0     0.074652     0.865019     0.994441  Biso 1.000000     C
    C   1.0     0.577279     0.532343     0.501189  Biso 1.000000     C
    C   1.0     0.681186     0.746852     0.717696  Biso 1.000000     C
    C   1.0     0.647463     0.748925     0.782505  Biso 1.000000     C
    C   1.0     0.611003     0.967560     0.999036  Biso 1.000000     C
    C   1.0     0.931238     0.967606     0.996897  Biso 1.000000     C
    C   1.0     0.827455     0.750990     0.782297  Biso 1.000000     C
    C   1.0     0.861057     0.748918     0.717488  Biso 1.000000     C
    C   1.0     0.897513     0.532467     0.498743  Biso 1.000000     C
    C   1.0     0.970343     0.565244     0.500922  Biso 1.000000     C
    C   1.0     0.934259     0.634984     0.502824  Biso 1.000000     C
    C   1.0     0.788289     0.746670     0.684699  Biso 1.000000     C
    C   1.0     0.824525     0.744427     0.615015  Biso 1.000000     C
    C   1.0     0.720436     0.750957     0.815229  Biso 1.000000     C
    C   1.0     0.684384     0.752853     0.884969  Biso 1.000000     C
    C   1.0     0.538361     0.934707     0.996687  Biso 1.000000     C
    C   1.0     0.574640     0.865022     0.994436  Biso 1.000000     C
    O   1.0     0.336258     0.162098     0.002537  Biso 1.000000     O
    O   1.0     0.422940     0.244532     0.087947  Biso 1.000000     O
    O   1.0     0.254284     0.255047     0.411796  Biso 1.000000     O
    O   1.0     0.004486     0.338091     0.492312  Biso 1.000000     O
    O   1.0     0.173048     0.337991     0.494480  Biso 1.000000     O
    O   1.0     0.086345     0.252539     0.412108  Biso 1.000000     O
    O   1.0     0.254360     0.242342     0.088103  Biso 1.000000     O
    O   1.0     0.004194     0.161829     0.005041  Biso 1.000000     O
    O   1.0     0.378979     0.280590     0.469278  Biso 1.000000     O
    O   1.0     0.128917     0.219296     0.030578  Biso 1.000000     O
    O   1.0     0.836239     0.162091     0.002558  Biso 1.000000     O
    O   1.0     0.922934     0.244492     0.087956  Biso 1.000000     O
    O   1.0     0.754279     0.255019     0.411809  Biso 1.000000     O
    O   1.0     0.504482     0.338099     0.492291  Biso 1.000000     O
    O   1.0     0.673037     0.337991     0.494479  Biso 1.000000     O
    O   1.0     0.586339     0.252519     0.412116  Biso 1.000000     O
    O   1.0     0.754332     0.242346     0.088108  Biso 1.000000     O
    O   1.0     0.504165     0.161833     0.005053  Biso 1.000000     O
    O   1.0     0.878960     0.280585     0.469285  Biso 1.000000     O
    O   1.0     0.628891     0.219301     0.030589  Biso 1.000000     O
    O   1.0     0.336262     0.662111     0.002527  Biso 1.000000     O
    O   1.0     0.422950     0.744499     0.087956  Biso 1.000000     O
    O   1.0     0.254291     0.755041     0.411803  Biso 1.000000     O
    O   1.0     0.004480     0.838099     0.492320  Biso 1.000000     O
    O   1.0     0.173042     0.837999     0.494488  Biso 1.000000     O
    O   1.0     0.086345     0.752552     0.412110  Biso 1.000000     O
    O   1.0     0.254351     0.742345     0.088109  Biso 1.000000     O
    O   1.0     0.004198     0.661844     0.005023  Biso 1.000000     O
    O   1.0     0.378975     0.780599     0.469282  Biso 1.000000     O
    O   1.0     0.128914     0.719302     0.030579  Biso 1.000000     O
    O   1.0     0.836238     0.662102     0.002555  Biso 1.000000     O
    O   1.0     0.922938     0.744490     0.087961  Biso 1.000000     O
    O   1.0     0.754276     0.755036     0.411812  Biso 1.000000     O
    O   1.0     0.504476     0.838106     0.492304  Biso 1.000000     O
    O   1.0     0.673023     0.837998     0.494506  Biso 1.000000     O
    O   1.0     0.586336     0.752541     0.412115  Biso 1.000000     O
    O   1.0     0.754335     0.742344     0.088117  Biso 1.000000     O
    O   1.0     0.504184     0.661851     0.005011  Biso 1.000000     O
    O   1.0     0.878954     0.780601     0.469289  Biso 1.000000     O
    O   1.0     0.628892     0.719304     0.030584  Biso 1.000000     O
    O   1.0     0.336263     0.162097     0.502521  Biso 1.000000     O
    O   1.0     0.422941     0.244537     0.587946  Biso 1.000000     O
    O   1.0     0.254302     0.255038     0.911796  Biso 1.000000     O
    O   1.0     0.004490     0.338085     0.992324  Biso 1.000000     O
    O   1.0     0.173065     0.337990     0.994463  Biso 1.000000     O
    O   1.0     0.086358     0.252540     0.912108  Biso 1.000000     O
    O   1.0     0.254369     0.242331     0.588104  Biso 1.000000     O
    O   1.0     0.004190     0.161823     0.505048  Biso 1.000000     O
    O   1.0     0.378991     0.280586     0.969276  Biso 1.000000     O
    O   1.0     0.128919     0.219292     0.530576  Biso 1.000000     O
    O   1.0     0.836247     0.162089     0.502539  Biso 1.000000     O
    O   1.0     0.922939     0.244492     0.587954  Biso 1.000000     O
    O   1.0     0.754303     0.255003     0.911807  Biso 1.000000     O
    O   1.0     0.504483     0.338096     0.992297  Biso 1.000000     O
    O   1.0     0.673059     0.337996     0.994440  Biso 1.000000     O
    O   1.0     0.586355     0.252521     0.912114  Biso 1.000000     O
    O   1.0     0.754345     0.242326     0.588111  Biso 1.000000     O
    O   1.0     0.504157     0.161825     0.505069  Biso 1.000000     O
    O   1.0     0.878975     0.280580     0.969283  Biso 1.000000     O
    O   1.0     0.628893     0.219293     0.530590  Biso 1.000000     O
    O   1.0     0.336265     0.662105     0.502526  Biso 1.000000     O
    O   1.0     0.422947     0.744524     0.587952  Biso 1.000000     O
    O   1.0     0.254299     0.755045     0.911801  Biso 1.000000     O
    O   1.0     0.004480     0.838095     0.992335  Biso 1.000000     O
    O   1.0     0.173051     0.837997     0.994484  Biso 1.000000     O
    O   1.0     0.086348     0.752565     0.912107  Biso 1.000000     O
    O   1.0     0.254360     0.742346     0.588107  Biso 1.000000     O
    O   1.0     0.004192     0.661837     0.505038  Biso 1.000000     O
    O   1.0     0.378979     0.780602     0.969284  Biso 1.000000     O
    O   1.0     0.128918     0.719298     0.530580  Biso 1.000000     O
    O   1.0     0.836245     0.662102     0.502540  Biso 1.000000     O
    O   1.0     0.922944     0.744494     0.587959  Biso 1.000000     O
    O   1.0     0.754297     0.755025     0.911812  Biso 1.000000     O
    O   1.0     0.504467     0.838100     0.992327  Biso 1.000000     O
    O   1.0     0.673034     0.837996     0.994488  Biso 1.000000     O
    O   1.0     0.586342     0.752564     0.912108  Biso 1.000000     O
    O   1.0     0.754343     0.742342     0.588116  Biso 1.000000     O
    O   1.0     0.504171     0.661838     0.505048  Biso 1.000000     O
    O   1.0     0.878962     0.780595     0.969291  Biso 1.000000     O
    O   1.0     0.628894     0.719301     0.530590  Biso 1.000000     O
   Al   1.0     0.254620     0.249277    -0.000838  Biso 1.000000    Al
   Al   1.0     0.004619     0.249182    -0.000730  Biso 1.000000    Al
   Al   1.0     0.754601     0.249275    -0.000832  Biso 1.000000    Al
   Al   1.0     0.504604     0.249187    -0.000731  Biso 1.000000    Al
   Al   1.0     0.254613     0.749286    -0.000832  Biso 1.000000    Al
   Al   1.0     0.004615     0.749193    -0.000729  Biso 1.000000    Al
   Al   1.0     0.754595     0.749283    -0.000823  Biso 1.000000    Al
   Al   1.0     0.504599     0.749198    -0.000731  Biso 1.000000    Al
   Al   1.0     0.254620     0.249273     0.499163  Biso 1.000000    Al
   Al   1.0     0.004620     0.249178     0.499269  Biso 1.000000    Al
   Al   1.0     0.754602     0.249268     0.499170  Biso 1.000000    Al
   Al   1.0     0.504604     0.249182     0.499269  Biso 1.000000    Al
   Al   1.0     0.254618     0.749281     0.499168  Biso 1.000000    Al
   Al   1.0     0.004619     0.749188     0.499271  Biso 1.000000    Al
   Al   1.0     0.754599     0.749280     0.499176  Biso 1.000000    Al
   Al   1.0     0.504604     0.749191     0.499271  Biso 1.000000    Al
