#======================================================================

# CRYSTAL DATA

#----------------------------------------------------------------------

data_VESTA_phase_1


_pd_phase_name                         MOF
_cell_length_a                         17.17100
_cell_length_b                         13.42700
_cell_length_c                         12.42000
_cell_angle_alpha                      89.96900
_cell_angle_beta                       90.00100
_cell_angle_gamma                      89.99100
_symmetry_space_group_name_H-M         "P 1"
_symmetry_Int_Tables_number            1

loop_
_symmetry_equiv_pos_as_xyz
   "x, y, z"

loop_
   _atom_site_label
   _atom_site_occupancy
   _atom_site_fract_x
   _atom_site_fract_y
   _atom_site_fract_z
   _atom_site_adp_type
   _atom_site_B_iso_or_equiv
   _atom_site_type_symbol
    H   1.0     0.301814     0.034778     0.678110  Biso 1.000000     H
    H   1.0     0.301804     0.534791     0.678112  Biso 1.000000     H
    H   1.0     0.198322     0.465124     0.178239  Biso 1.000000     H
    H   1.0     0.198311     0.965136     0.178237  Biso 1.000000     H
    H   1.0     0.698165     0.284690     0.321944  Biso 1.000000     H
    H   1.0     0.698151     0.784652     0.321936  Biso 1.000000     H
    H   1.0     0.801959     0.215387     0.822085  Biso 1.000000     H
    H   1.0     0.801945     0.715351     0.822094  Biso 1.000000     H
    H   1.0     0.698180     0.465186     0.321903  Biso 1.000000     H
    H   1.0     0.698169     0.965199     0.321905  Biso 1.000000     H
    H   1.0     0.801672     0.034841     0.821778  Biso 1.000000     H
    H   1.0     0.801661     0.534853     0.821777  Biso 1.000000     H
    H   1.0     0.301833     0.215325     0.678080  Biso 1.000000     H
    H   1.0     0.301818     0.715288     0.678071  Biso 1.000000     H
    H   1.0     0.198038     0.284626     0.177922  Biso 1.000000     H
    H   1.0     0.198024     0.784590     0.177930  Biso 1.000000     H
    H   1.0     0.178277     0.034669     0.787278  Biso 1.000000     H
    H   1.0     0.178261     0.534672     0.787269  Biso 1.000000     H
    H   1.0     0.321870     0.465398     0.287392  Biso 1.000000     H
    H   1.0     0.321854     0.965400     0.287401  Biso 1.000000     H
    H   1.0     0.821702     0.284671     0.212772  Biso 1.000000     H
    H   1.0     0.821695     0.784644     0.212776  Biso 1.000000     H
    H   1.0     0.678414     0.215240     0.712923  Biso 1.000000     H
    H   1.0     0.678407     0.715213     0.712919  Biso 1.000000     H
    H   1.0     0.821723     0.465305     0.212747  Biso 1.000000     H
    H   1.0     0.821706     0.965308     0.212737  Biso 1.000000     H
    H   1.0     0.678130     0.034577     0.712614  Biso 1.000000     H
    H   1.0     0.678113     0.534579     0.712624  Biso 1.000000     H
    H   1.0     0.178289     0.215333     0.787239  Biso 1.000000     H
    H   1.0     0.178281     0.715306     0.787243  Biso 1.000000     H
    H   1.0     0.321577     0.284764     0.287096  Biso 1.000000     H
    H   1.0     0.321569     0.784737     0.287092  Biso 1.000000     H
    H   1.0     0.019584     0.374937     0.139911  Biso 1.000000     H
    H   1.0     0.019539     0.874928     0.139937  Biso 1.000000     H
    H   1.0     0.480448     0.124930     0.639943  Biso 1.000000     H
    H   1.0     0.480403     0.624922     0.639916  Biso 1.000000     H
    H   1.0     0.980445     0.125049     0.860078  Biso 1.000000     H
    H   1.0     0.980400     0.625040     0.860104  Biso 1.000000     H
    H   1.0     0.519582     0.375055     0.360100  Biso 1.000000     H
    H   1.0     0.519534     0.875047     0.360072  Biso 1.000000     H
    C   1.0     0.274260     0.465385     0.702606  Biso 1.000000     C
    C   1.0     0.274262     0.965350     0.702605  Biso 1.000000     C
    C   1.0     0.225793     0.034600     0.202682  Biso 1.000000     C
    C   1.0     0.225796     0.534566     0.202681  Biso 1.000000     C
    C   1.0     0.725736     0.215324     0.297416  Biso 1.000000     C
    C   1.0     0.725728     0.715289     0.297412  Biso 1.000000     C
    C   1.0     0.774324     0.284712     0.797481  Biso 1.000000     C
    C   1.0     0.774317     0.784679     0.797484  Biso 1.000000     C
    C   1.0     0.725721     0.034627     0.297410  Biso 1.000000     C
    C   1.0     0.725724     0.534592     0.297410  Biso 1.000000     C
    C   1.0     0.774187     0.465411     0.797334  Biso 1.000000     C
    C   1.0     0.774190     0.965377     0.797333  Biso 1.000000     C
    C   1.0     0.274255     0.284688     0.702603  Biso 1.000000     C
    C   1.0     0.274248     0.784653     0.702599  Biso 1.000000     C
    C   1.0     0.225667     0.215298     0.202531  Biso 1.000000     C
    C   1.0     0.225660     0.715265     0.202534  Biso 1.000000     C
    C   1.0     0.205891     0.465388     0.762560  Biso 1.000000     C
    C   1.0     0.205897     0.965358     0.762567  Biso 1.000000     C
    C   1.0     0.294176     0.034673     0.262609  Biso 1.000000     C
    C   1.0     0.294182     0.534644     0.262602  Biso 1.000000     C
    C   1.0     0.794098     0.215349     0.237447  Biso 1.000000     C
    C   1.0     0.794094     0.715320     0.237452  Biso 1.000000     C
    C   1.0     0.705943     0.284601     0.737550  Biso 1.000000     C
    C   1.0     0.705938     0.784573     0.737547  Biso 1.000000     C
    C   1.0     0.794087     0.034619     0.237448  Biso 1.000000     C
    C   1.0     0.794093     0.534589     0.237455  Biso 1.000000     C
    C   1.0     0.705802     0.465333     0.737413  Biso 1.000000     C
    C   1.0     0.705807     0.965304     0.737407  Biso 1.000000     C
    C   1.0     0.205890     0.284657     0.762563  Biso 1.000000     C
    C   1.0     0.205885     0.784628     0.762568  Biso 1.000000     C
    C   1.0     0.294045     0.215404     0.262469  Biso 1.000000     C
    C   1.0     0.294040     0.715376     0.262465  Biso 1.000000     C
    C   1.0     0.384008     0.375054     0.611441  Biso 1.000000     C
    C   1.0     0.384003     0.875017     0.611429  Biso 1.000000     C
    C   1.0     0.115979     0.124855     0.111438  Biso 1.000000     C
    C   1.0     0.115975     0.624819     0.111449  Biso 1.000000     C
    C   1.0     0.615980     0.124960     0.388586  Biso 1.000000     C
    C   1.0     0.615975     0.624923     0.388575  Biso 1.000000     C
    C   1.0     0.884008     0.375158     0.888566  Biso 1.000000     C
    C   1.0     0.884004     0.875122     0.888577  Biso 1.000000     C
    C   1.0     0.309392     0.375039     0.673237  Biso 1.000000     C
    C   1.0     0.309391     0.875002     0.673237  Biso 1.000000     C
    C   1.0     0.190611     0.124912     0.173204  Biso 1.000000     C
    C   1.0     0.190609     0.624875     0.173205  Biso 1.000000     C
    C   1.0     0.690593     0.124975     0.326778  Biso 1.000000     C
    C   1.0     0.690592     0.624938     0.326778  Biso 1.000000     C
    C   1.0     0.809374     0.375102     0.826810  Biso 1.000000     C
    C   1.0     0.809372     0.875065     0.826812  Biso 1.000000     C
    C   1.0     0.100485     0.374988     0.863047  Biso 1.000000     C
    C   1.0     0.100492     0.874971     0.863069  Biso 1.000000     C
    C   1.0     0.399511     0.125128     0.363040  Biso 1.000000     C
    C   1.0     0.399517     0.625111     0.363020  Biso 1.000000     C
    C   1.0     0.899491     0.125006     0.136947  Biso 1.000000     C
    C   1.0     0.899498     0.624989     0.136967  Biso 1.000000     C
    C   1.0     0.600467     0.374866     0.636995  Biso 1.000000     C
    C   1.0     0.600473     0.874849     0.636976  Biso 1.000000     C
    C   1.0     0.171554     0.375017     0.793542  Biso 1.000000     C
    C   1.0     0.171550     0.874991     0.793541  Biso 1.000000     C
    C   1.0     0.328431     0.125076     0.293553  Biso 1.000000     C
    C   1.0     0.328429     0.625051     0.293551  Biso 1.000000     C
    C   1.0     0.828433     0.124986     0.206474  Biso 1.000000     C
    C   1.0     0.828430     0.624960     0.206474  Biso 1.000000     C
    C   1.0     0.671554     0.374926     0.706464  Biso 1.000000     C
    C   1.0     0.671553     0.874901     0.706462  Biso 1.000000     C
    O   1.0     0.073105     0.459543     0.890175  Biso 1.000000     O
    O   1.0     0.073104     0.959528     0.890175  Biso 1.000000     O
    O   1.0     0.426908     0.040559     0.390185  Biso 1.000000     O
    O   1.0     0.426907     0.540545     0.390185  Biso 1.000000     O
    O   1.0     0.926812     0.209581     0.109724  Biso 1.000000     O
    O   1.0     0.926812     0.709567     0.109741  Biso 1.000000     O
    O   1.0     0.573187     0.290297     0.609759  Biso 1.000000     O
    O   1.0     0.573187     0.790284     0.609742  Biso 1.000000     O
    O   1.0     0.926879     0.040449     0.109840  Biso 1.000000     O
    O   1.0     0.926878     0.540434     0.109841  Biso 1.000000     O
    O   1.0     0.573077     0.459432     0.609831  Biso 1.000000     O
    O   1.0     0.573076     0.959418     0.609830  Biso 1.000000     O
    O   1.0     0.073171     0.290410     0.890275  Biso 1.000000     O
    O   1.0     0.073171     0.790396     0.890292  Biso 1.000000     O
    O   1.0     0.426796     0.209693     0.390273  Biso 1.000000     O
    O   1.0     0.426796     0.709680     0.390256  Biso 1.000000     O
    O   1.0     0.413236     0.459588     0.587940  Biso 1.000000     O
    O   1.0     0.413236     0.959551     0.587941  Biso 1.000000     O
    O   1.0     0.086777     0.040326     0.087948  Biso 1.000000     O
    O   1.0     0.086777     0.540290     0.087947  Biso 1.000000     O
    O   1.0     0.586702     0.209474     0.412003  Biso 1.000000     O
    O   1.0     0.586702     0.709437     0.411997  Biso 1.000000     O
    O   1.0     0.913294     0.290638     0.912028  Biso 1.000000     O
    O   1.0     0.913293     0.790602     0.912035  Biso 1.000000     O
    O   1.0     0.586747     0.040426     0.412074  Biso 1.000000     O
    O   1.0     0.586747     0.540389     0.412075  Biso 1.000000     O
    O   1.0     0.913207     0.459687     0.912068  Biso 1.000000     O
    O   1.0     0.913207     0.959651     0.912068  Biso 1.000000     O
    O   1.0     0.413282     0.290540     0.588018  Biso 1.000000     O
    O   1.0     0.413281     0.790503     0.588013  Biso 1.000000     O
    O   1.0     0.086690     0.209375     0.087981  Biso 1.000000     O
    O   1.0     0.086690     0.709339     0.087987  Biso 1.000000     O
    O   1.0     0.004225     0.374961     0.064764  Biso 1.000000     O
    O   1.0     0.004233     0.874949     0.064769  Biso 1.000000     O
    O   1.0     0.495757     0.124976     0.564777  Biso 1.000000     O
    O   1.0     0.495766     0.624964     0.564771  Biso 1.000000     O
    O   1.0     0.995751     0.125028     0.935246  Biso 1.000000     O
    O   1.0     0.995759     0.625016     0.935252  Biso 1.000000     O
    O   1.0     0.504217     0.375013     0.435244  Biso 1.000000     O
    O   1.0     0.504227     0.875001     0.435238  Biso 1.000000     O
   Al   1.0     0.000000    -0.000000    -0.000000  Biso 1.000000    Al
   Al   1.0    -0.000003     0.499988     0.000000  Biso 1.000000    Al
   Al   1.0     0.499994     0.000001     0.500008  Biso 1.000000    Al
   Al   1.0     0.499992     0.499988     0.500008  Biso 1.000000    Al
   Al   1.0    -0.000004     0.249997    -0.000007  Biso 1.000000    Al
   Al   1.0    -0.000002     0.749978     0.000007  Biso 1.000000    Al
   Al   1.0     0.499990     0.249998     0.500015  Biso 1.000000    Al
   Al   1.0     0.499993     0.749979     0.500000  Biso 1.000000    Al
