#======================================================================

# CRYSTAL DATA

#----------------------------------------------------------------------

data_VESTA_phase_1


_pd_phase_name                         MOF
_cell_length_a                         16.70300
_cell_length_b                         13.36100
_cell_length_c                         13.15200
_cell_angle_alpha                      89.97700
_cell_angle_beta                       90.00600
_cell_angle_gamma                      89.54500
_symmetry_space_group_name_H-M         "P 1"
_symmetry_Int_Tables_number            1

loop_
_symmetry_equiv_pos_as_xyz
   "x, y, z"

loop_
   _atom_site_label
   _atom_site_occupancy
   _atom_site_fract_x
   _atom_site_fract_y
   _atom_site_fract_z
   _atom_site_adp_type
   _atom_site_B_iso_or_equiv
   _atom_site_type_symbol
    H   1.0     0.171938     0.035808     0.214736  Biso 1.000000     H
    H   1.0     0.172193     0.535873     0.214300  Biso 1.000000     H
    H   1.0     0.293235     0.038797     0.327505  Biso 1.000000     H
    H   1.0     0.293463     0.538852     0.327117  Biso 1.000000     H
    H   1.0     0.321615     0.473000     0.710875  Biso 1.000000     H
    H   1.0     0.321785     0.973043     0.711176  Biso 1.000000     H
    H   1.0     0.200446     0.470056     0.824106  Biso 1.000000     H
    H   1.0     0.200623     0.970084     0.824418  Biso 1.000000     H
    H   1.0     0.788532     0.288879     0.835104  Biso 1.000000     H
    H   1.0     0.788636     0.788937     0.834924  Biso 1.000000     H
    H   1.0     0.667465     0.285993     0.721837  Biso 1.000000     H
    H   1.0     0.667572     0.786052     0.721655  Biso 1.000000     H
    H   1.0     0.705751     0.220333     0.331534  Biso 1.000000     H
    H   1.0     0.705797     0.720369     0.331641  Biso 1.000000     H
    H   1.0     0.826724     0.223241     0.217870  Biso 1.000000     H
    H   1.0     0.826769     0.723271     0.217971  Biso 1.000000     H
    H   1.0     0.821993     0.473291     0.789591  Biso 1.000000     H
    H   1.0     0.822121     0.973323     0.789375  Biso 1.000000     H
    H   1.0     0.700964     0.470260     0.676002  Biso 1.000000     H
    H   1.0     0.701091     0.970292     0.675786  Biso 1.000000     H
    H   1.0     0.672549     0.036175     0.285683  Biso 1.000000     H
    H   1.0     0.672641     0.536192     0.285821  Biso 1.000000     H
    H   1.0     0.793541     0.038943     0.172381  Biso 1.000000     H
    H   1.0     0.793633     0.538966     0.172523  Biso 1.000000     H
    H   1.0     0.205475     0.220049     0.168783  Biso 1.000000     H
    H   1.0     0.205593     0.720133     0.168568  Biso 1.000000     H
    H   1.0     0.326552     0.223102     0.282231  Biso 1.000000     H
    H   1.0     0.326685     0.723188     0.281991  Biso 1.000000     H
    H   1.0     0.288730     0.288767     0.665753  Biso 1.000000     H
    H   1.0     0.288881     0.788843     0.665963  Biso 1.000000     H
    H   1.0     0.167370     0.285882     0.778440  Biso 1.000000     H
    H   1.0     0.167520     0.785975     0.778649  Biso 1.000000     H
    H   1.0     0.527143     0.127850     0.372750  Biso 1.000000     H
    H   1.0     0.527185     0.627862     0.372756  Biso 1.000000     H
    H   1.0     0.521734     0.377682     0.629456  Biso 1.000000     H
    H   1.0     0.521779     0.877682     0.629434  Biso 1.000000     H
    H   1.0     0.027417     0.127962     0.127416  Biso 1.000000     H
    H   1.0     0.027443     0.627965     0.127394  Biso 1.000000     H
    H   1.0     0.000000     0.377981     0.870720  Biso 1.000000     H
    H   1.0     0.000000     0.878005     0.870776  Biso 1.000000     H
    C   1.0     0.206339     0.467796     0.229604  Biso 1.000000     C
    C   1.0     0.206172     0.967763     0.229887  Biso 1.000000     C
    C   1.0     0.273568     0.469608     0.291933  Biso 1.000000     C
    C   1.0     0.273419     0.969581     0.292188  Biso 1.000000     C
    C   1.0     0.287322     0.040917     0.726454  Biso 1.000000     C
    C   1.0     0.287222     0.540902     0.726261  Biso 1.000000     C
    C   1.0     0.220092     0.039305     0.788775  Biso 1.000000     C
    C   1.0     0.219990     0.539299     0.788579  Biso 1.000000     C
    C   1.0     0.768728     0.219687     0.799725  Biso 1.000000     C
    C   1.0     0.768782     0.719723     0.799635  Biso 1.000000     C
    C   1.0     0.701627     0.217929     0.737170  Biso 1.000000     C
    C   1.0     0.701682     0.717968     0.737075  Biso 1.000000     C
    C   1.0     0.725219     0.289559     0.295890  Biso 1.000000     C
    C   1.0     0.725236     0.789580     0.295943  Biso 1.000000     C
    C   1.0     0.792326     0.291131     0.233319  Biso 1.000000     C
    C   1.0     0.792341     0.791149     0.233368  Biso 1.000000     C
    C   1.0     0.787556     0.041126     0.774068  Biso 1.000000     C
    C   1.0     0.787480     0.541112     0.774198  Biso 1.000000     C
    C   1.0     0.720434     0.039485     0.711547  Biso 1.000000     C
    C   1.0     0.720360     0.539473     0.711674  Biso 1.000000     C
    C   1.0     0.706710     0.468083     0.270469  Biso 1.000000     C
    C   1.0     0.706651     0.968076     0.270386  Biso 1.000000     C
    C   1.0     0.773773     0.469781     0.207904  Biso 1.000000     C
    C   1.0     0.773711     0.969770     0.207815  Biso 1.000000     C
    C   1.0     0.224935     0.289316     0.204298  Biso 1.000000     C
    C   1.0     0.224976     0.789366     0.204221  Biso 1.000000     C
    C   1.0     0.292131     0.290977     0.266733  Biso 1.000000     C
    C   1.0     0.292184     0.791030     0.266635  Biso 1.000000     C
    C   1.0     0.268778     0.219530     0.700958  Biso 1.000000     C
    C   1.0     0.268857     0.719583     0.701055  Biso 1.000000     C
    C   1.0     0.201498     0.217778     0.763224  Biso 1.000000     C
    C   1.0     0.201576     0.717841     0.763318  Biso 1.000000     C
    C   1.0     0.388443     0.382749     0.379111  Biso 1.000000     C
    C   1.0     0.388424     0.882765     0.379139  Biso 1.000000     C
    C   1.0     0.108910     0.375788     0.118704  Biso 1.000000     C
    C   1.0     0.108852     0.875783     0.118798  Biso 1.000000     C
    C   1.0     0.316831     0.381134     0.311012  Biso 1.000000     C
    C   1.0     0.316791     0.881151     0.311074  Biso 1.000000     C
    C   1.0     0.181324     0.377660     0.185508  Biso 1.000000     C
    C   1.0     0.181260     0.877666     0.185613  Biso 1.000000     C
    C   1.0     0.105027     0.125865     0.875850  Biso 1.000000     C
    C   1.0     0.105019     0.625899     0.875802  Biso 1.000000     C
    C   1.0     0.384714     0.132768     0.615787  Biso 1.000000     C
    C   1.0     0.384711     0.632774     0.615757  Biso 1.000000     C
    C   1.0     0.176629     0.127720     0.807684  Biso 1.000000     C
    C   1.0     0.176619     0.627754     0.807635  Biso 1.000000     C
    C   1.0     0.312211     0.131102     0.682342  Biso 1.000000     C
    C   1.0     0.312203     0.631117     0.682300  Biso 1.000000     C
    C   1.0     0.605490     0.126138     0.624215  Biso 1.000000     C
    C   1.0     0.605485     0.626153     0.624222  Biso 1.000000     C
    C   1.0     0.884551     0.133014     0.885116  Biso 1.000000     C
    C   1.0     0.884547     0.633020     0.885124  Biso 1.000000     C
    C   1.0     0.676951     0.127884     0.692588  Biso 1.000000     C
    C   1.0     0.676944     0.627898     0.692600  Biso 1.000000     C
    C   1.0     0.812202     0.131287     0.818365  Biso 1.000000     C
    C   1.0     0.812193     0.631298     0.818381  Biso 1.000000     C
    C   1.0     0.888332     0.382922     0.120457  Biso 1.000000     C
    C   1.0     0.888307     0.882925     0.120440  Biso 1.000000     C
    C   1.0     0.609345     0.376173     0.381469  Biso 1.000000     C
    C   1.0     0.609330     0.876179     0.381456  Biso 1.000000     C
    C   1.0     0.816918     0.381245     0.188801  Biso 1.000000     C
    C   1.0     0.816896     0.881247     0.188787  Biso 1.000000     C
    C   1.0     0.681711     0.377961     0.314655  Biso 1.000000     C
    C   1.0     0.681695     0.877970     0.314645  Biso 1.000000     C
    O   1.0     0.073989     0.459333     0.100880  Biso 1.000000     O
    O   1.0     0.073879     0.959306     0.101031  Biso 1.000000     O
    O   1.0     0.409674     0.467389     0.413862  Biso 1.000000     O
    O   1.0     0.409662     0.967403     0.413886  Biso 1.000000     O
    O   1.0     0.419812     0.049407     0.599061  Biso 1.000000     O
    O   1.0     0.419802     0.549408     0.599026  Biso 1.000000     O
    O   1.0     0.083951     0.040629     0.910060  Biso 1.000000     O
    O   1.0     0.083923     0.540657     0.909972  Biso 1.000000     O
    O   1.0     0.905960     0.217558     0.919871  Biso 1.000000     O
    O   1.0     0.905969     0.717564     0.919866  Biso 1.000000     O
    O   1.0     0.571757     0.209940     0.604081  Biso 1.000000     O
    O   1.0     0.571764     0.709958     0.604071  Biso 1.000000     O
    O   1.0     0.586765     0.290852     0.413733  Biso 1.000000     O
    O   1.0     0.586765     0.790857     0.413735  Biso 1.000000     O
    O   1.0     0.923384     0.299722     0.102794  Biso 1.000000     O
    O   1.0     0.923382     0.799735     0.102798  Biso 1.000000     O
    O   1.0     0.919917     0.049801     0.901655  Biso 1.000000     O
    O   1.0     0.919905     0.549801     0.901668  Biso 1.000000     O
    O   1.0     0.583574     0.040803     0.591292  Biso 1.000000     O
    O   1.0     0.583569     0.540820     0.591294  Biso 1.000000     O
    O   1.0     0.575360     0.460004     0.400632  Biso 1.000000     O
    O   1.0     0.575342     0.960006     0.400624  Biso 1.000000     O
    O   1.0     0.909114     0.467549     0.085200  Biso 1.000000     O
    O   1.0     0.909071     0.967555     0.085174  Biso 1.000000     O
    O   1.0     0.087205     0.290657     0.084979  Biso 1.000000     O
    O   1.0     0.087205     0.790659     0.084993  Biso 1.000000     O
    O   1.0     0.423202     0.299379     0.397006  Biso 1.000000     O
    O   1.0     0.423205     0.799400     0.396995  Biso 1.000000     O
    O   1.0     0.406480     0.217368     0.581422  Biso 1.000000     O
    O   1.0     0.406488     0.717374     0.581407  Biso 1.000000     O
    O   1.0     0.070312     0.209342     0.894608  Biso 1.000000     O
    O   1.0     0.070337     0.709386     0.894621  Biso 1.000000     O
    O   1.0    -0.003108     0.378969     0.937395  Biso 1.000000     O
    O   1.0    -0.003103     0.878980     0.937410  Biso 1.000000     O
    O   1.0     0.499619     0.128894     0.437744  Biso 1.000000     O
    O   1.0     0.499623     0.628898     0.437725  Biso 1.000000     O
    O   1.0    -0.000239     0.128993     0.062509  Biso 1.000000     O
    O   1.0    -0.000229     0.628993     0.062498  Biso 1.000000     O
    O   1.0     0.496899     0.378814     0.562726  Biso 1.000000     O
    O   1.0     0.496901     0.878816     0.562730  Biso 1.000000     O
   Al   1.0    -0.003306     0.004167     0.999601  Biso 1.000000    Al
   Al   1.0    -0.003287     0.504172     0.999568  Biso 1.000000    Al
   Al   1.0     0.496826     0.004143     0.500867  Biso 1.000000    Al
   Al   1.0     0.496832     0.504146     0.500855  Biso 1.000000    Al
   Al   1.0    -0.003324     0.254164     0.000000  Biso 1.000000    Al
   Al   1.0    -0.003321     0.754172     0.000000  Biso 1.000000    Al
   Al   1.0     0.496804     0.254147     0.499431  Biso 1.000000    Al
   Al   1.0     0.496806     0.754152     0.499422  Biso 1.000000    Al
