#======================================================================

# CRYSTAL DATA

#----------------------------------------------------------------------

data_VESTA_phase_1


_pd_phase_name                         MOF
_cell_length_a                         18.42000
_cell_length_b                         18.42800
_cell_length_c                         18.43000
_cell_angle_alpha                      60.16900
_cell_angle_beta                       60.18200
_cell_angle_gamma                      60.18000
_symmetry_space_group_name_H-M         "P 1"
_symmetry_Int_Tables_number            1

loop_
_symmetry_equiv_pos_as_xyz
   "x, y, z"

loop_
   _atom_site_label
   _atom_site_occupancy
   _atom_site_fract_x
   _atom_site_fract_y
   _atom_site_fract_z
   _atom_site_adp_type
   _atom_site_B_iso_or_equiv
   _atom_site_type_symbol
    H   1.0     0.048641     0.567730     0.048604  Biso 1.000000     H
    H   1.0     0.568157     0.048319     0.335694  Biso 1.000000     H
    H   1.0     0.047557     0.335712     0.047605  Biso 1.000000     H
    H   1.0     0.335639     0.048351     0.568088  Biso 1.000000     H
    H   1.0     0.047552     0.047612     0.335718  Biso 1.000000     H
    H   1.0     0.568168     0.335686     0.048309  Biso 1.000000     H
    H   1.0     0.048627     0.048633     0.567704  Biso 1.000000     H
    H   1.0     0.335639     0.568109     0.048332  Biso 1.000000     H
    H   1.0     0.048280     0.335687     0.568118  Biso 1.000000     H
    H   1.0     0.567916     0.048541     0.048525  Biso 1.000000     H
    H   1.0     0.048259     0.568160     0.335689  Biso 1.000000     H
    H   1.0     0.335656     0.047638     0.047622  Biso 1.000000     H
    H   1.0     0.432104     0.951479     0.951447  Biso 1.000000     H
    H   1.0     0.951752     0.431856     0.664288  Biso 1.000000     H
    H   1.0     0.664363     0.952382     0.952349  Biso 1.000000     H
    H   1.0     0.951732     0.664329     0.431859  Biso 1.000000     H
    H   1.0     0.952461     0.952409     0.664258  Biso 1.000000     H
    H   1.0     0.664379     0.431905     0.951640  Biso 1.000000     H
    H   1.0     0.951385     0.951387     0.432272  Biso 1.000000     H
    H   1.0     0.431851     0.664328     0.951662  Biso 1.000000     H
    H   1.0     0.664377     0.951663     0.431891  Biso 1.000000     H
    H   1.0     0.951368     0.432285     0.951382  Biso 1.000000     H
    H   1.0     0.431859     0.951696     0.664285  Biso 1.000000     H
    H   1.0     0.952453     0.664302     0.952381  Biso 1.000000     H
    C   1.0     0.026945     0.538832     0.026928  Biso 1.000000     C
    C   1.0     0.539081     0.026757     0.407668  Biso 1.000000     C
    C   1.0     0.026338     0.407682     0.026371  Biso 1.000000     C
    C   1.0     0.407644     0.026777     0.539028  Biso 1.000000     C
    C   1.0     0.026341     0.026369     0.407679  Biso 1.000000     C
    C   1.0     0.539087     0.407669     0.026755  Biso 1.000000     C
    C   1.0     0.026942     0.026939     0.538813  Biso 1.000000     C
    C   1.0     0.407645     0.539045     0.026770  Biso 1.000000     C
    C   1.0     0.026737     0.407671     0.539045  Biso 1.000000     C
    C   1.0     0.538942     0.026890     0.026880  Biso 1.000000     C
    C   1.0     0.026726     0.539077     0.407664  Biso 1.000000     C
    C   1.0     0.407654     0.026387     0.026378  Biso 1.000000     C
    C   1.0     0.461078     0.973130     0.973092  Biso 1.000000     C
    C   1.0     0.973286     0.460939     0.592313  Biso 1.000000     C
    C   1.0     0.592365     0.973633     0.973594  Biso 1.000000     C
    C   1.0     0.973275     0.592344     0.460931  Biso 1.000000     C
    C   1.0     0.973672     0.973651     0.592297  Biso 1.000000     C
    C   1.0     0.592374     0.460970     0.973202  Biso 1.000000     C
    C   1.0     0.973071     0.973082     0.461162  Biso 1.000000     C
    C   1.0     0.460932     0.592345     0.973218  Biso 1.000000     C
    C   1.0     0.592372     0.973237     0.460950  Biso 1.000000     C
    C   1.0     0.973066     0.461182     0.973057  Biso 1.000000     C
    C   1.0     0.460935     0.973258     0.592311  Biso 1.000000     C
    C   1.0     0.973672     0.592332     0.973614  Biso 1.000000     C
    C   1.0     0.110968     0.388708     0.110960  Biso 1.000000     C
    C   1.0     0.053630     0.446171     0.053640  Biso 1.000000     C
    C   1.0     0.389059     0.111315     0.389048  Biso 1.000000     C
    C   1.0     0.446380     0.053856     0.446367  Biso 1.000000     C
    C   1.0     0.110960     0.110968     0.388709  Biso 1.000000     C
    C   1.0     0.053624     0.053647     0.446165  Biso 1.000000     C
    C   1.0     0.389067     0.389044     0.111313  Biso 1.000000     C
    C   1.0     0.446384     0.446372     0.053850  Biso 1.000000     C
    C   1.0     0.111216     0.389099     0.389083  Biso 1.000000     C
    C   1.0     0.053796     0.446401     0.446382  Biso 1.000000     C
    C   1.0     0.388828     0.110913     0.110925  Biso 1.000000     C
    C   1.0     0.446244     0.053615     0.053611  Biso 1.000000     C
    C   1.0     0.611191     0.889105     0.889049  Biso 1.000000     C
    C   1.0     0.553776     0.946406     0.946361  Biso 1.000000     C
    C   1.0     0.888799     0.610917     0.610894  Biso 1.000000     C
    C   1.0     0.946215     0.553615     0.553595  Biso 1.000000     C
    C   1.0     0.889054     0.889050     0.611267  Biso 1.000000     C
    C   1.0     0.946388     0.946373     0.553811  Biso 1.000000     C
    C   1.0     0.610952     0.610970     0.888661  Biso 1.000000     C
    C   1.0     0.553634     0.553643     0.946121  Biso 1.000000     C
    C   1.0     0.610957     0.888700     0.610931  Biso 1.000000     C
    C   1.0     0.553636     0.946159     0.553612  Biso 1.000000     C
    C   1.0     0.889045     0.611306     0.889022  Biso 1.000000     C
    C   1.0     0.946379     0.553843     0.946347  Biso 1.000000     C
    O   1.0     0.249944     0.249919     0.249923  Biso 1.000000     O
    O   1.0     0.750074     0.750095     0.750054  Biso 1.000000     O
    O   1.0     0.133149     0.428240     0.133357  Biso 1.000000     O
    O   1.0     0.428651     0.133331     0.305286  Biso 1.000000     O
    O   1.0     0.133002     0.304936     0.132737  Biso 1.000000     O
    O   1.0     0.305262     0.133581     0.428615  Biso 1.000000     O
    O   1.0     0.132996     0.132740     0.304947  Biso 1.000000     O
    O   1.0     0.428664     0.305272     0.133333  Biso 1.000000     O
    O   1.0     0.133145     0.133364     0.428236  Biso 1.000000     O
    O   1.0     0.305268     0.428615     0.133586  Biso 1.000000     O
    O   1.0     0.133345     0.305322     0.428658  Biso 1.000000     O
    O   1.0     0.428407     0.133185     0.133191  Biso 1.000000     O
    O   1.0     0.133346     0.428677     0.305316  Biso 1.000000     O
    O   1.0     0.305022     0.132829     0.132848  Biso 1.000000     O
    O   1.0     0.571612     0.866830     0.866786  Biso 1.000000     O
    O   1.0     0.866670     0.571338     0.694661  Biso 1.000000     O
    O   1.0     0.694998     0.867187     0.867128  Biso 1.000000     O
    O   1.0     0.866672     0.694693     0.571319  Biso 1.000000     O
    O   1.0     0.867021     0.867276     0.695029  Biso 1.000000     O
    O   1.0     0.694750     0.571400     0.866390  Biso 1.000000     O
    O   1.0     0.866869     0.866654     0.571740  Biso 1.000000     O
    O   1.0     0.571354     0.694743     0.866643  Biso 1.000000     O
    O   1.0     0.694754     0.866432     0.571364  Biso 1.000000     O
    O   1.0     0.866868     0.571774     0.866621  Biso 1.000000     O
    O   1.0     0.571365     0.866685     0.694693  Biso 1.000000     O
    O   1.0     0.867015     0.695079     0.867242  Biso 1.000000     O
   Zn   1.0     0.206626     0.380355     0.206777  Biso 1.000000    Zn
   Zn   1.0     0.380427     0.206621     0.206636  Biso 1.000000    Zn
   Zn   1.0     0.206334     0.206210     0.206223  Biso 1.000000    Zn
   Zn   1.0     0.206634     0.206774     0.380342  Biso 1.000000    Zn
   Zn   1.0     0.619591     0.793393     0.793342  Biso 1.000000    Zn
   Zn   1.0     0.793393     0.619660     0.793200  Biso 1.000000    Zn
   Zn   1.0     0.793685     0.793805     0.793754  Biso 1.000000    Zn
   Zn   1.0     0.793383     0.793241     0.619635  Biso 1.000000    Zn
