#======================================================================

# CRYSTAL DATA

#----------------------------------------------------------------------

data_VESTA_phase_1


_pd_phase_name                         MOF
_cell_length_a                         16.08400
_cell_length_b                         16.08200
_cell_length_c                         22.09300
_cell_angle_alpha                      89.99300
_cell_angle_beta                       89.95100
_cell_angle_gamma                      89.97400
_symmetry_space_group_name_H-M         "P 1"
_symmetry_Int_Tables_number            1

loop_
_symmetry_equiv_pos_as_xyz
   "x, y, z"

loop_
   _atom_site_label
   _atom_site_occupancy
   _atom_site_fract_x
   _atom_site_fract_y
   _atom_site_fract_z
   _atom_site_adp_type
   _atom_site_B_iso_or_equiv
   _atom_site_type_symbol
    H   1.0     0.269659     0.490490     0.328539  Biso 1.000000     H
    H   1.0     0.154610     0.390523     0.319490  Biso 1.000000     H
    H   1.0     0.235238     0.344663     0.135485  Biso 1.000000     H
    H   1.0     0.348631     0.445220     0.152927  Biso 1.000000     H
    H   1.0     0.035187     0.346164     0.286352  Biso 1.000000     H
    H   1.0     0.928527     0.236192     0.275928  Biso 1.000000     H
    H   1.0     0.950729     0.118908     0.204530  Biso 1.000000     H
    H   1.0     0.185517     0.223961     0.151123  Biso 1.000000     H
    H   1.0     0.193917     0.007111     0.955578  Biso 1.000000     H
    H   1.0     0.295306     0.908665     0.910180  Biso 1.000000     H
    H   1.0     0.348083     0.789812     0.968932  Biso 1.000000     H
    H   1.0     0.195627     0.866699     0.120588  Biso 1.000000     H
    H   1.0     0.420030     0.722726     0.033291  Biso 1.000000     H
    H   1.0     0.471947     0.614512     0.101912  Biso 1.000000     H
    H   1.0     0.267312     0.639832     0.215561  Biso 1.000000     H
    H   1.0     0.206489     0.748354     0.152464  Biso 1.000000     H
    H   1.0     0.260437     0.024510     0.138358  Biso 1.000000     H
    H   1.0     0.260658     0.102960     0.088530  Biso 1.000000     H
    H   1.0     0.730771     0.509329     0.828794  Biso 1.000000     H
    H   1.0     0.845868     0.609233     0.819820  Biso 1.000000     H
    H   1.0     0.765806     0.655343     0.635814  Biso 1.000000     H
    H   1.0     0.652256     0.554878     0.653190  Biso 1.000000     H
    H   1.0     0.965510     0.653571     0.786585  Biso 1.000000     H
    H   1.0     0.072088     0.763644     0.776317  Biso 1.000000     H
    H   1.0     0.049912     0.881224     0.705165  Biso 1.000000     H
    H   1.0     0.815239     0.776213     0.651722  Biso 1.000000     H
    H   1.0     0.806603     0.992568     0.456352  Biso 1.000000     H
    H   1.0     0.705204     0.090793     0.410822  Biso 1.000000     H
    H   1.0     0.652268     0.209816     0.469386  Biso 1.000000     H
    H   1.0     0.804561     0.133478     0.621105  Biso 1.000000     H
    H   1.0     0.580184     0.277208     0.533800  Biso 1.000000     H
    H   1.0     0.528449     0.385654     0.602243  Biso 1.000000     H
    H   1.0     0.732803     0.360126     0.715927  Biso 1.000000     H
    H   1.0     0.793625     0.251591     0.652846  Biso 1.000000     H
    H   1.0     0.740223     0.975812     0.639503  Biso 1.000000     H
    H   1.0     0.739996     0.897099     0.589848  Biso 1.000000     H
    H   1.0     0.009710     0.769863     0.078774  Biso 1.000000     H
    H   1.0     0.109499     0.654546     0.069659  Biso 1.000000     H
    H   1.0     0.155237     0.734672     0.885560  Biso 1.000000     H
    H   1.0     0.054819     0.848303     0.903041  Biso 1.000000     H
    H   1.0     0.153674     0.534858     0.036423  Biso 1.000000     H
    H   1.0     0.263705     0.428124     0.026007  Biso 1.000000     H
    H   1.0     0.381117     0.450225     0.954668  Biso 1.000000     H
    H   1.0     0.276018     0.685047     0.901276  Biso 1.000000     H
    H   1.0     0.493086     0.693819     0.706056  Biso 1.000000     H
    H   1.0     0.591462     0.795308     0.660753  Biso 1.000000     H
    H   1.0     0.710273     0.847916     0.719527  Biso 1.000000     H
    H   1.0     0.633493     0.695168     0.870986  Biso 1.000000     H
    H   1.0     0.777071     0.919826     0.783953  Biso 1.000000     H
    H   1.0     0.885321     0.971572     0.852386  Biso 1.000000     H
    H   1.0     0.860402     0.766802     0.965879  Biso 1.000000     H
    H   1.0     0.751970     0.705952     0.902817  Biso 1.000000     H
    H   1.0     0.475817     0.759927     0.888731  Biso 1.000000     H
    H   1.0     0.396793     0.760156     0.839423  Biso 1.000000     H
    H   1.0     0.990437     0.230554     0.578473  Biso 1.000000     H
    H   1.0     0.890561     0.345781     0.569383  Biso 1.000000     H
    H   1.0     0.844525     0.265049     0.385507  Biso 1.000000     H
    H   1.0     0.944950     0.151479     0.402995  Biso 1.000000     H
    H   1.0     0.846205     0.465313     0.536094  Biso 1.000000     H
    H   1.0     0.736185     0.571995     0.525707  Biso 1.000000     H
    H   1.0     0.618724     0.549713     0.454540  Biso 1.000000     H
    H   1.0     0.723828     0.314808     0.401293  Biso 1.000000     H
    H   1.0     0.507601     0.306088     0.205900  Biso 1.000000     H
    H   1.0     0.409369     0.204666     0.160513  Biso 1.000000     H
    H   1.0     0.290369     0.152000     0.219188  Biso 1.000000     H
    H   1.0     0.366626     0.304676     0.370730  Biso 1.000000     H
    H   1.0     0.222873     0.080291     0.283451  Biso 1.000000     H
    H   1.0     0.114487     0.028523     0.351937  Biso 1.000000     H
    H   1.0     0.139998     0.232757     0.465813  Biso 1.000000     H
    H   1.0     0.248653     0.293479     0.402814  Biso 1.000000     H
    H   1.0     0.524745     0.239902     0.388916  Biso 1.000000     H
    H   1.0     0.602967     0.239584     0.338816  Biso 1.000000     H
    H   1.0     0.230368     0.990421     0.421242  Biso 1.000000     H
    H   1.0     0.345634     0.890582     0.430336  Biso 1.000000     H
    H   1.0     0.265161     0.844799     0.614368  Biso 1.000000     H
    H   1.0     0.151481     0.945142     0.596877  Biso 1.000000     H
    H   1.0     0.465314     0.846394     0.463712  Biso 1.000000     H
    H   1.0     0.572126     0.736490     0.474284  Biso 1.000000     H
    H   1.0     0.549825     0.619048     0.545554  Biso 1.000000     H
    H   1.0     0.314737     0.723957     0.598628  Biso 1.000000     H
    H   1.0     0.306040     0.507196     0.794019  Biso 1.000000     H
    H   1.0     0.204477     0.408962     0.839382  Biso 1.000000     H
    H   1.0     0.151740     0.290148     0.780661  Biso 1.000000     H
    H   1.0     0.304616     0.366571     0.629107  Biso 1.000000     H
    H   1.0     0.079835     0.223175     0.716309  Biso 1.000000     H
    H   1.0     0.028060     0.114762     0.647905  Biso 1.000000     H
    H   1.0     0.232732     0.139636     0.534258  Biso 1.000000     H
    H   1.0     0.293534     0.248252     0.597217  Biso 1.000000     H
    H   1.0     0.239711     0.524820     0.611525  Biso 1.000000     H
    H   1.0     0.239741     0.603362     0.661267  Biso 1.000000     H
    H   1.0     0.769835     0.009628     0.921514  Biso 1.000000     H
    H   1.0     0.654729     0.109646     0.930565  Biso 1.000000     H
    H   1.0     0.734871     0.155434     0.114569  Biso 1.000000     H
    H   1.0     0.848299     0.054772     0.097146  Biso 1.000000     H
    H   1.0     0.535175     0.154185     0.963710  Biso 1.000000     H
    H   1.0     0.428670     0.264407     0.974061  Biso 1.000000     H
    H   1.0     0.450847     0.381742     0.045390  Biso 1.000000     H
    H   1.0     0.685344     0.276156     0.098871  Biso 1.000000     H
    H   1.0     0.694356     0.492421     0.294294  Biso 1.000000     H
    H   1.0     0.795878     0.590586     0.339627  Biso 1.000000     H
    H   1.0     0.848554     0.709613     0.280961  Biso 1.000000     H
    H   1.0     0.695422     0.633613     0.129648  Biso 1.000000     H
    H   1.0     0.920212     0.777231     0.216654  Biso 1.000000     H
    H   1.0     0.971806     0.885637     0.148166  Biso 1.000000     H
    H   1.0     0.767512     0.859946     0.034479  Biso 1.000000     H
    H   1.0     0.706927     0.751334     0.097480  Biso 1.000000     H
    H   1.0     0.760669     0.475116     0.111866  Biso 1.000000     H
    H   1.0     0.760402     0.396530     0.161595  Biso 1.000000     H
    H   1.0     0.490661     0.269584     0.671479  Biso 1.000000     H
    H   1.0     0.390607     0.154585     0.680493  Biso 1.000000     H
    H   1.0     0.344532     0.234941     0.864516  Biso 1.000000     H
    H   1.0     0.445168     0.348318     0.847095  Biso 1.000000     H
    H   1.0     0.346235     0.035037     0.713732  Biso 1.000000     H
    H   1.0     0.236190     0.928422     0.724129  Biso 1.000000     H
    H   1.0     0.118682     0.950702     0.795385  Biso 1.000000     H
    H   1.0     0.223708     0.185478     0.848701  Biso 1.000000     H
    H   1.0     0.007021     0.194038     0.044182  Biso 1.000000     H
    H   1.0     0.908882     0.295683     0.089628  Biso 1.000000     H
    H   1.0     0.790023     0.348663     0.031008  Biso 1.000000     H
    H   1.0     0.866304     0.195876     0.879425  Biso 1.000000     H
    H   1.0     0.723151     0.421077     0.966322  Biso 1.000000     H
    H   1.0     0.614542     0.472493     0.897939  Biso 1.000000     H
    H   1.0     0.639386     0.267283     0.784875  Biso 1.000000     H
    H   1.0     0.747866     0.206616     0.847971  Biso 1.000000     H
    H   1.0     0.024663     0.261016     0.862193  Biso 1.000000     H
    H   1.0     0.103576     0.260161     0.911534  Biso 1.000000     H
    H   1.0     0.509594     0.730714     0.171164  Biso 1.000000     H
    H   1.0     0.609580     0.845781     0.180067  Biso 1.000000     H
    H   1.0     0.655669     0.765388     0.364019  Biso 1.000000     H
    H   1.0     0.555148     0.651909     0.346716  Biso 1.000000     H
    H   1.0     0.653933     0.965289     0.213194  Biso 1.000000     H
    H   1.0     0.763843     0.071987     0.223487  Biso 1.000000     H
    H   1.0     0.881218     0.049942     0.294751  Biso 1.000000     H
    H   1.0     0.776380     0.815077     0.348222  Biso 1.000000     H
    H   1.0     0.992531     0.806674     0.543678  Biso 1.000000     H
    H   1.0     0.090735     0.705217     0.589169  Biso 1.000000     H
    H   1.0     0.209760     0.652349     0.530547  Biso 1.000000     H
    H   1.0     0.133463     0.804789     0.378833  Biso 1.000000     H
    H   1.0     0.277171     0.580398     0.466242  Biso 1.000000     H
    H   1.0     0.385612     0.528560     0.397783  Biso 1.000000     H
    H   1.0     0.360242     0.732928     0.283954  Biso 1.000000     H
    H   1.0     0.251544     0.793725     0.346934  Biso 1.000000     H
    H   1.0     0.976247     0.740537     0.360142  Biso 1.000000     H
    H   1.0     0.897735     0.739706     0.410028  Biso 1.000000     H
    C   1.0     0.259764     0.457658     0.286050  Biso 1.000000     C
    C   1.0     0.194496     0.401704     0.280479  Biso 1.000000     C
    C   1.0     0.183570     0.357340     0.226238  Biso 1.000000     C
    C   1.0     0.239610     0.375518     0.179220  Biso 1.000000     C
    C   1.0     0.303317     0.432392     0.188451  Biso 1.000000     C
    C   1.0     0.118797     0.292562     0.219939  Biso 1.000000     C
    C   1.0     0.045911     0.294765     0.255149  Biso 1.000000     C
    C   1.0     0.985614     0.233017     0.249453  Biso 1.000000     C
    C   1.0     0.997425     0.167428     0.209225  Biso 1.000000     C
    C   1.0     0.070026     0.163533     0.173770  Biso 1.000000     C
    C   1.0     0.129868     0.226558     0.178965  Biso 1.000000     C
    C   1.0     0.077967     0.094780     0.130714  Biso 1.000000     C
    C   1.0     0.127090     0.997401     0.069516  Biso 1.000000     C
    C   1.0     0.187678     0.941080     0.040579  Biso 1.000000     C
    C   1.0     0.216622     0.954533     0.981557  Biso 1.000000     C
    C   1.0     0.274606     0.899722     0.956729  Biso 1.000000     C
    C   1.0     0.304719     0.832829     0.990310  Biso 1.000000     C
    C   1.0     0.277341     0.819196     0.049975  Biso 1.000000     C
    C   1.0     0.218516     0.874395     0.074533  Biso 1.000000     C
    C   1.0     0.308632     0.748933     0.086732  Biso 1.000000     C
    C   1.0     0.383077     0.706892     0.072977  Biso 1.000000     C
    C   1.0     0.413257     0.645795     0.111781  Biso 1.000000     C
    C   1.0     0.299907     0.660227     0.174892  Biso 1.000000     C
    C   1.0     0.265705     0.721670     0.138607  Biso 1.000000     C
    C   1.0     0.740752     0.542226     0.786327  Biso 1.000000     C
    C   1.0     0.806073     0.598148     0.780798  Biso 1.000000     C
    C   1.0     0.817148     0.642590     0.726588  Biso 1.000000     C
    C   1.0     0.761238     0.624487     0.679547  Biso 1.000000     C
    C   1.0     0.697462     0.567650     0.688742  Biso 1.000000     C
    C   1.0     0.881924     0.707396     0.720349  Biso 1.000000     C
    C   1.0     0.954780     0.705088     0.755493  Biso 1.000000     C
    C   1.0     0.015039     0.766905     0.749877  Biso 1.000000     C
    C   1.0     0.003235     0.832661     0.709793  Biso 1.000000     C
    C   1.0     0.930661     0.836656     0.674409  Biso 1.000000     C
    C   1.0     0.870862     0.773565     0.679522  Biso 1.000000     C
    C   1.0     0.922673     0.905508     0.631435  Biso 1.000000     C
    C   1.0     0.873335     0.002729     0.570234  Biso 1.000000     C
    C   1.0     0.812671     0.058865     0.541246  Biso 1.000000     C
    C   1.0     0.783829     0.045208     0.482246  Biso 1.000000     C
    C   1.0     0.725841     0.099901     0.457342  Biso 1.000000     C
    C   1.0     0.695633     0.166887     0.490808  Biso 1.000000     C
    C   1.0     0.722922     0.180723     0.550445  Biso 1.000000     C
    C   1.0     0.781739     0.125637     0.575077  Biso 1.000000     C
    C   1.0     0.691618     0.251075     0.587123  Biso 1.000000     C
    C   1.0     0.617219     0.293134     0.573378  Biso 1.000000     C
    C   1.0     0.587083     0.354342     0.612134  Biso 1.000000     C
    C   1.0     0.700297     0.339821     0.675241  Biso 1.000000     C
    C   1.0     0.734489     0.278344     0.638961  Biso 1.000000     C
    C   1.0     0.042463     0.759790     0.036247  Biso 1.000000     C
    C   1.0     0.098319     0.694381     0.030643  Biso 1.000000     C
    C   1.0     0.142614     0.683249     0.976368  Biso 1.000000     C
    C   1.0     0.124437     0.739206     0.929329  Biso 1.000000     C
    C   1.0     0.067656     0.803055     0.938588  Biso 1.000000     C
    C   1.0     0.207368     0.618393     0.970056  Biso 1.000000     C
    C   1.0     0.205123     0.545536     0.005239  Biso 1.000000     C
    C   1.0     0.266906     0.485199    -0.000453  Biso 1.000000     C
    C   1.0     0.332571     0.496949     0.959356  Biso 1.000000     C
    C   1.0     0.336489     0.569539     0.923921  Biso 1.000000     C
    C   1.0     0.273426     0.629403     0.929102  Biso 1.000000     C
    C   1.0     0.405301     0.577504     0.880896  Biso 1.000000     C
    C   1.0     0.502769     0.626794     0.819858  Biso 1.000000     C
    C   1.0     0.559101     0.687417     0.791020  Biso 1.000000     C
    C   1.0     0.545642     0.716475     0.732034  Biso 1.000000     C
    C   1.0     0.600423     0.774482     0.707256  Biso 1.000000     C
    C   1.0     0.667285     0.804504     0.740845  Biso 1.000000     C
    C   1.0     0.680945     0.776992     0.800464  Biso 1.000000     C
    C   1.0     0.625789     0.718128     0.824966  Biso 1.000000     C
    C   1.0     0.751184     0.808220     0.837206  Biso 1.000000     C
    C   1.0     0.793065     0.882725     0.823509  Biso 1.000000     C
    C   1.0     0.854186     0.912848     0.862253  Biso 1.000000     C
    C   1.0     0.839955     0.799414     0.925252  Biso 1.000000     C
    C   1.0     0.778545     0.765211     0.888988  Biso 1.000000     C
    C   1.0     0.957570     0.240458     0.536009  Biso 1.000000     C
    C   1.0     0.901680     0.305830     0.530413  Biso 1.000000     C
    C   1.0     0.857289     0.316776     0.476199  Biso 1.000000     C
    C   1.0     0.875396     0.260670     0.429225  Biso 1.000000     C
    C   1.0     0.932206     0.196857     0.438478  Biso 1.000000     C
    C   1.0     0.792522     0.381612     0.469892  Biso 1.000000     C
    C   1.0     0.794760     0.454557     0.504987  Biso 1.000000     C
    C   1.0     0.732964     0.514875     0.499309  Biso 1.000000     C
    C   1.0     0.667301     0.503023     0.459208  Biso 1.000000     C
    C   1.0     0.663396     0.430367     0.423856  Biso 1.000000     C
    C   1.0     0.726461     0.370514     0.429036  Biso 1.000000     C
    C   1.0     0.594626     0.422372     0.380880  Biso 1.000000     C
    C   1.0     0.497402     0.373128     0.319734  Biso 1.000000     C
    C   1.0     0.441251     0.312483     0.290812  Biso 1.000000     C
    C   1.0     0.454936     0.283448     0.231839  Biso 1.000000     C
    C   1.0     0.400253     0.225444     0.207018  Biso 1.000000     C
    C   1.0     0.333276     0.195388     0.240558  Biso 1.000000     C
    C   1.0     0.319431     0.222827     0.300190  Biso 1.000000     C
    C   1.0     0.374488     0.281698     0.324724  Biso 1.000000     C
    C   1.0     0.249112     0.191569     0.336927  Biso 1.000000     C
    C   1.0     0.207010     0.117241     0.323124  Biso 1.000000     C
    C   1.0     0.145815     0.087109     0.361891  Biso 1.000000     C
    C   1.0     0.160347     0.200237     0.425103  Biso 1.000000     C
    C   1.0     0.221870     0.234401     0.388847  Biso 1.000000     C
    C   1.0     0.240321     0.957607     0.463739  Biso 1.000000     C
    C   1.0     0.305710     0.901731     0.469335  Biso 1.000000     C
    C   1.0     0.316715     0.857406     0.523596  Biso 1.000000     C
    C   1.0     0.260654     0.875574     0.570608  Biso 1.000000     C
    C   1.0     0.196820     0.932353     0.561355  Biso 1.000000     C
    C   1.0     0.381574     0.792664     0.529956  Biso 1.000000     C
    C   1.0     0.454569     0.794953     0.494875  Biso 1.000000     C
    C   1.0     0.514948     0.733228     0.500652  Biso 1.000000     C
    C   1.0     0.503090     0.667569     0.540817  Biso 1.000000     C
    C   1.0     0.430367     0.663588     0.576140  Biso 1.000000     C
    C   1.0     0.370467     0.726602     0.570878  Biso 1.000000     C
    C   1.0     0.422346     0.594753     0.619126  Biso 1.000000     C
    C   1.0     0.373092     0.497288     0.680187  Biso 1.000000     C
    C   1.0     0.312421     0.441039     0.709069  Biso 1.000000     C
    C   1.0     0.283350     0.454620     0.768056  Biso 1.000000     C
    C   1.0     0.225280     0.399932     0.792866  Biso 1.000000     C
    C   1.0     0.195191     0.333056     0.759300  Biso 1.000000     C
    C   1.0     0.222679     0.319300     0.699661  Biso 1.000000     C
    C   1.0     0.281621     0.374359     0.675128  Biso 1.000000     C
    C   1.0     0.191379     0.249043     0.662943  Biso 1.000000     C
    C   1.0     0.116892     0.207144     0.676711  Biso 1.000000     C
    C   1.0     0.086753     0.145963     0.637996  Biso 1.000000     C
    C   1.0     0.200131     0.160139     0.574900  Biso 1.000000     C
    C   1.0     0.234322     0.221636     0.611107  Biso 1.000000     C
    C   1.0     0.759811     0.042436     0.964008  Biso 1.000000     C
    C   1.0     0.694516     0.098431     0.969578  Biso 1.000000     C
    C   1.0     0.683444     0.142802     0.023807  Biso 1.000000     C
    C   1.0     0.739355     0.124573     0.070836  Biso 1.000000     C
    C   1.0     0.803087     0.067649     0.061612  Biso 1.000000     C
    C   1.0     0.618693     0.207669     0.030085  Biso 1.000000     C
    C   1.0     0.545901     0.205585     0.994888  Biso 1.000000     C
    C   1.0     0.485683     0.267490     0.000000  Biso 1.000000     C
    C   1.0     0.497477     0.333099     0.040733  Biso 1.000000     C
    C   1.0     0.569993     0.336833     0.076205  Biso 1.000000     C
    C   1.0     0.629751     0.273667     0.071037  Biso 1.000000     C
    C   1.0     0.577961     0.405569     0.119254  Biso 1.000000     C
    C   1.0     0.627153     0.502755     0.180511  Biso 1.000000     C
    C   1.0     0.687812     0.558879     0.209466  Biso 1.000000     C
    C   1.0     0.716955     0.545114     0.268380  Biso 1.000000     C
    C   1.0     0.775024     0.599763     0.293161  Biso 1.000000     C
    C   1.0     0.805082     0.666748     0.259637  Biso 1.000000     C
    C   1.0     0.777543     0.680669     0.200068  Biso 1.000000     C
    C   1.0     0.718552     0.625692     0.175593  Biso 1.000000     C
    C   1.0     0.808828     0.750971     0.163325  Biso 1.000000     C
    C   1.0     0.883162     0.793083     0.177058  Biso 1.000000     C
    C   1.0     0.913214     0.854298     0.138278  Biso 1.000000     C
    C   1.0     0.800064     0.839680     0.075168  Biso 1.000000     C
    C   1.0     0.765963     0.778170     0.111454  Biso 1.000000     C
    C   1.0     0.457749     0.259656     0.713958  Biso 1.000000     C
    C   1.0     0.401743     0.194413     0.719509  Biso 1.000000     C
    C   1.0     0.357291     0.183432     0.773742  Biso 1.000000     C
    C   1.0     0.375439     0.239373     0.820779  Biso 1.000000     C
    C   1.0     0.432362     0.303066     0.811564  Biso 1.000000     C
    C   1.0     0.292457     0.118695     0.780015  Biso 1.000000     C
    C   1.0     0.294735     0.045800     0.744862  Biso 1.000000     C
    C   1.0     0.232932     0.985531     0.750543  Biso 1.000000     C
    C   1.0     0.167224     0.997389     0.790694  Biso 1.000000     C
    C   1.0     0.163253     0.070009     0.826089  Biso 1.000000     C
    C   1.0     0.226335     0.129810     0.820912  Biso 1.000000     C
    C   1.0     0.094380     0.077983     0.869085  Biso 1.000000     C
    C   1.0     0.996998     0.127161     0.930307  Biso 1.000000     C
    C   1.0     0.940830     0.187858     0.959300  Biso 1.000000     C
    C   1.0     0.954455     0.216843     0.018264  Biso 1.000000     C
    C   1.0     0.899811     0.274965     0.043117  Biso 1.000000     C
    C   1.0     0.832922     0.305199     0.009618  Biso 1.000000     C
    C   1.0     0.819125     0.277786     0.950014  Biso 1.000000     C
    C   1.0     0.874149     0.218814     0.925431  Biso 1.000000     C
    C   1.0     0.748819     0.309105     0.913347  Biso 1.000000     C
    C   1.0     0.707004     0.383733     0.926933  Biso 1.000000     C
    C   1.0     0.645762     0.413729     0.888193  Biso 1.000000     C
    C   1.0     0.659859     0.300041     0.825418  Biso 1.000000     C
    C   1.0     0.721327     0.265940     0.861698  Biso 1.000000     C
    C   1.0     0.542508     0.740640     0.213601  Biso 1.000000     C
    C   1.0     0.598472     0.805921     0.219089  Biso 1.000000     C
    C   1.0     0.642911     0.816906     0.273272  Biso 1.000000     C
    C   1.0     0.624806     0.760905     0.320311  Biso 1.000000     C
    C   1.0     0.567927     0.697178     0.311163  Biso 1.000000     C
    C   1.0     0.707668     0.881715     0.279506  Biso 1.000000     C
    C   1.0     0.705381     0.954589     0.244318  Biso 1.000000     C
    C   1.0     0.767109     0.014920     0.249947  Biso 1.000000     C
    C   1.0     0.832754     0.003184     0.290093  Biso 1.000000     C
    C   1.0     0.836726     0.930597     0.325515  Biso 1.000000     C
    C   1.0     0.773734     0.870707     0.320385  Biso 1.000000     C
    C   1.0     0.905457     0.922688     0.368550  Biso 1.000000     C
    C   1.0     0.002644     0.873438     0.429769  Biso 1.000000     C
    C   1.0     0.058828     0.812813     0.458741  Biso 1.000000     C
    C   1.0     0.045179     0.783928     0.517760  Biso 1.000000     C
    C   1.0     0.099863     0.725916     0.542644  Biso 1.000000     C
    C   1.0     0.166839     0.695735     0.509138  Biso 1.000000     C
    C   1.0     0.180671     0.723066     0.449479  Biso 1.000000     C
    C   1.0     0.125589     0.781907     0.424866  Biso 1.000000     C
    C   1.0     0.251019     0.691753     0.412783  Biso 1.000000     C
    C   1.0     0.293088     0.617368     0.426591  Biso 1.000000     C
    C   1.0     0.354308     0.587196     0.387845  Biso 1.000000     C
    C   1.0     0.339852     0.700411     0.324652  Biso 1.000000     C
    C   1.0     0.278311     0.734607     0.360890  Biso 1.000000     C
    N   1.0     0.314717     0.473103     0.241276  Biso 1.000000     N
    N   1.0     0.013538     0.057208     0.104925  Biso 1.000000     N
    N   1.0     0.044537     0.996293     0.066948  Biso 1.000000     N
    N   1.0     0.150179     0.059080     0.109151  Biso 1.000000     N
    N   1.0     0.231845     0.079321     0.126703  Biso 1.000000     N
    N   1.0     0.373808     0.623634     0.163395  Biso 1.000000     N
    N   1.0     0.685885     0.526891     0.741548  Biso 1.000000     N
    N   1.0     0.987026     0.943053     0.605434  Biso 1.000000     N
    N   1.0     0.955887     0.003882     0.567457  Biso 1.000000     N
    N   1.0     0.850401     0.941186     0.610059  Biso 1.000000     N
    N   1.0     0.768818     0.920975     0.627888  Biso 1.000000     N
    N   1.0     0.626469     0.376498     0.663720  Biso 1.000000     N
    N   1.0     0.027053     0.814666     0.991468  Biso 1.000000     N
    N   1.0     0.442872     0.513123     0.854931  Biso 1.000000     N
    N   1.0     0.503866     0.544240     0.817067  Biso 1.000000     N
    N   1.0     0.441053     0.649760     0.859552  Biso 1.000000     N
    N   1.0     0.420904     0.731351     0.877421  Biso 1.000000     N
    N   1.0     0.876439     0.873350     0.913794  Biso 1.000000     N
    N   1.0     0.972917     0.185423     0.491289  Biso 1.000000     N
    N   1.0     0.556942     0.486771     0.355060  Biso 1.000000     N
    N   1.0     0.496116     0.455691     0.317117  Biso 1.000000     N
    N   1.0     0.559084     0.350110     0.359383  Biso 1.000000     N
    N   1.0     0.579458     0.268465     0.377007  Biso 1.000000     N
    N   1.0     0.123647     0.126459     0.413534  Biso 1.000000     N
    N   1.0     0.185324     0.973002     0.508503  Biso 1.000000     N
    N   1.0     0.486724     0.557019     0.644916  Biso 1.000000     N
    N   1.0     0.455642     0.496040     0.682799  Biso 1.000000     N
    N   1.0     0.350087     0.559098     0.640602  Biso 1.000000     N
    N   1.0     0.268438     0.579566     0.623091  Biso 1.000000     N
    N   1.0     0.126234     0.123624     0.586433  Biso 1.000000     N
    N   1.0     0.814628     0.026952     0.008781  Biso 1.000000     N
    N   1.0     0.513542     0.443430     0.144955  Biso 1.000000     N
    N   1.0     0.544590     0.504245     0.182940  Biso 1.000000     N
    N   1.0     0.650191     0.440944     0.140926  Biso 1.000000     N
    N   1.0     0.731851     0.420402     0.123437  Biso 1.000000     N
    N   1.0     0.873803     0.876461     0.086690  Biso 1.000000     N
    N   1.0     0.473142     0.314537     0.758741  Biso 1.000000     N
    N   1.0     0.056631     0.013556     0.894829  Biso 1.000000     N
    N   1.0     0.995723     0.044588     0.932817  Biso 1.000000     N
    N   1.0     0.058754     0.150215     0.890668  Biso 1.000000     N
    N   1.0     0.079391     0.231920     0.873354  Biso 1.000000     N
    N   1.0     0.623366     0.374030     0.836773  Biso 1.000000     N
    N   1.0     0.527130     0.685730     0.258397  Biso 1.000000     N
    N   1.0     0.942767     0.987078     0.394613  Biso 1.000000     N
    N   1.0     0.003561     0.955990     0.432620  Biso 1.000000     N
    N   1.0     0.941261     0.850441     0.389899  Biso 1.000000     N
    N   1.0     0.921345     0.768841     0.371978  Biso 1.000000     N
    N   1.0     0.376515     0.626579     0.336227  Biso 1.000000     N
    O   1.0     0.882284     0.221897     0.743951  Biso 1.000000     O
    O   1.0     0.909696     0.100742     0.804974  Biso 1.000000     O
    O   1.0     0.775655     0.117539     0.757327  Biso 1.000000     O
    O   1.0     0.896326     0.087316     0.696476  Biso 1.000000     O
    O   1.0     0.114445     0.778146     0.242663  Biso 1.000000     O
    O   1.0     0.087269     0.899282     0.303756  Biso 1.000000     O
    O   1.0     0.221383     0.882203     0.256054  Biso 1.000000     O
    O   1.0     0.100849     0.912828     0.195286  Biso 1.000000     O
    O   1.0     0.278749     0.382324     0.493337  Biso 1.000000     O
    O   1.0     0.399247     0.412755     0.554168  Biso 1.000000     O
    O   1.0     0.385628     0.278134     0.506721  Biso 1.000000     O
    O   1.0     0.412870     0.399312     0.445681  Biso 1.000000     O
    O   1.0     0.721288     0.611420    -0.010711  Biso 1.000000     O
    O   1.0     0.603623     0.586706     0.054396  Biso 1.000000     O
    O   1.0     0.621692     0.721373     0.000000  Biso 1.000000     O
    O   1.0     0.583294     0.603578     0.946785  Biso 1.000000     O
    O   1.0     0.276916     0.277123     0.054529  Biso 1.000000     O
    O   1.0     0.256986     0.148732     0.000000  Biso 1.000000     O
    O   1.0     0.276904     0.277011     0.945340  Biso 1.000000     O
    O   1.0     0.149197     0.253522    -0.000259  Biso 1.000000     O
    O   1.0     0.725607     0.722372     0.554565  Biso 1.000000     O
    O   1.0     0.747057     0.851582     0.501701  Biso 1.000000     O
    O   1.0     0.722275     0.725464     0.445355  Biso 1.000000     O
    O   1.0     0.852104     0.744011     0.497859  Biso 1.000000     O
    O   1.0     0.222548     0.776715     0.804888  Biso 1.000000     O
    O   1.0     0.351477     0.753293     0.752122  Biso 1.000000     O
    O   1.0     0.225425     0.778093     0.695682  Biso 1.000000     O
    O   1.0     0.243258     0.649023     0.749262  Biso 1.000000     O
    O   1.0     0.777733     0.222477     0.304231  Biso 1.000000     O
    O   1.0     0.648830     0.243044     0.250897  Biso 1.000000     O
    O   1.0     0.776529     0.223766     0.195029  Biso 1.000000     O
    O   1.0     0.753516     0.350840     0.250283  Biso 1.000000     O
   Cl   1.0     0.865973     0.131910     0.750681  Biso 1.000000    Cl
   Cl   1.0     0.131019     0.868086     0.249442  Biso 1.000000    Cl
   Cl   1.0     0.369106     0.368102     0.499980  Biso 1.000000    Cl
   Cl   1.0     0.632529     0.630815    -0.000399  Biso 1.000000    Cl
   Cl   1.0     0.240154     0.239258    -0.000021  Biso 1.000000    Cl
   Cl   1.0     0.761606     0.760709     0.499869  Biso 1.000000    Cl
   Cl   1.0     0.260515     0.739426     0.750500  Biso 1.000000    Cl
   Cl   1.0     0.739319     0.259882     0.250115  Biso 1.000000    Cl
   Cd   1.0     0.441613     0.558673     0.249940  Biso 1.000000    Cd
   Cd   1.0     0.558612     0.441505     0.750048  Biso 1.000000    Cd
   Cd   1.0     0.941478     0.941510     0.000088  Biso 1.000000    Cd
   Cd   1.0     0.058364     0.058497     0.499934  Biso 1.000000    Cd
