#======================================================================

# CRYSTAL DATA

#----------------------------------------------------------------------

data_VESTA_phase_1


_pd_phase_name                         MOF
_cell_length_a                         18.42500
_cell_length_b                         18.43200
_cell_length_c                         18.43100
_cell_angle_alpha                      60.14000
_cell_angle_beta                       60.16000
_cell_angle_gamma                      60.15700
_symmetry_space_group_name_H-M         "P 1"
_symmetry_Int_Tables_number            1

loop_
_symmetry_equiv_pos_as_xyz
   "x, y, z"

loop_
   _atom_site_label
   _atom_site_occupancy
   _atom_site_fract_x
   _atom_site_fract_y
   _atom_site_fract_z
   _atom_site_adp_type
   _atom_site_B_iso_or_equiv
   _atom_site_type_symbol
    H   1.0     0.452265     0.452231     0.164333  Biso 1.000000     H
    H   1.0     0.451543     0.451542     0.932040  Biso 1.000000     H
    H   1.0     0.164379     0.931900     0.451786  Biso 1.000000     H
    H   1.0     0.931805     0.164345     0.451835  Biso 1.000000     H
    H   1.0     0.451829     0.164352     0.931829  Biso 1.000000     H
    H   1.0     0.451837     0.931820     0.164348  Biso 1.000000     H
    H   1.0     0.164364     0.452249     0.452261  Biso 1.000000     H
    H   1.0     0.931903     0.451600     0.451609  Biso 1.000000     H
    H   1.0     0.451543     0.932038     0.451537  Biso 1.000000     H
    H   1.0     0.452255     0.164333     0.452245  Biso 1.000000     H
    H   1.0     0.164371     0.451782     0.931922  Biso 1.000000     H
    H   1.0     0.931828     0.451814     0.164345  Biso 1.000000     H
    H   1.0     0.547728     0.547771     0.835686  Biso 1.000000     H
    H   1.0     0.548450     0.548460     0.067979  Biso 1.000000     H
    H   1.0     0.068187     0.835658     0.548184  Biso 1.000000     H
    H   1.0     0.835613     0.068103     0.548233  Biso 1.000000     H
    H   1.0     0.835621     0.548221     0.068097  Biso 1.000000     H
    H   1.0     0.068165     0.548189     0.835674  Biso 1.000000     H
    H   1.0     0.547738     0.835670     0.547774  Biso 1.000000     H
    H   1.0     0.548450     0.067965     0.548483  Biso 1.000000     H
    H   1.0     0.068089     0.548403     0.548410  Biso 1.000000     H
    H   1.0     0.835629     0.547754     0.547758  Biso 1.000000     H
    H   1.0     0.548164     0.835651     0.068190  Biso 1.000000     H
    H   1.0     0.548156     0.068183     0.835671  Biso 1.000000     H
    C   1.0     0.473557     0.473544     0.092343  Biso 1.000000     C
    C   1.0     0.473152     0.473160     0.961049  Biso 1.000000     C
    C   1.0     0.092371     0.960949     0.473299  Biso 1.000000     C
    C   1.0     0.960895     0.092353     0.473325  Biso 1.000000     C
    C   1.0     0.473309     0.092358     0.960929  Biso 1.000000     C
    C   1.0     0.473321     0.960912     0.092352  Biso 1.000000     C
    C   1.0     0.092359     0.473549     0.473558  Biso 1.000000     C
    C   1.0     0.960972     0.473184     0.473192  Biso 1.000000     C
    C   1.0     0.473157     0.961037     0.473158  Biso 1.000000     C
    C   1.0     0.473552     0.092345     0.473554  Biso 1.000000     C
    C   1.0     0.092363     0.473297     0.960969  Biso 1.000000     C
    C   1.0     0.960909     0.473313     0.092351  Biso 1.000000     C
    C   1.0     0.526435     0.526460     0.907676  Biso 1.000000     C
    C   1.0     0.526840     0.526844     0.038970  Biso 1.000000     C
    C   1.0     0.039098     0.907650     0.526694  Biso 1.000000     C
    C   1.0     0.907621     0.039053     0.526720  Biso 1.000000     C
    C   1.0     0.907629     0.526706     0.039050  Biso 1.000000     C
    C   1.0     0.039084     0.526690     0.907668  Biso 1.000000     C
    C   1.0     0.526441     0.907658     0.526465  Biso 1.000000     C
    C   1.0     0.526836     0.038966     0.526861  Biso 1.000000     C
    C   1.0     0.039021     0.526819     0.526827  Biso 1.000000     C
    C   1.0     0.907633     0.526454     0.526461  Biso 1.000000     C
    C   1.0     0.526682     0.907646     0.039090  Biso 1.000000     C
    C   1.0     0.526671     0.039091     0.907667  Biso 1.000000     C
    C   1.0     0.389060     0.389003     0.111105  Biso 1.000000     C
    C   1.0     0.446384     0.446341     0.053718  Biso 1.000000     C
    C   1.0     0.110912     0.110959     0.388826  Biso 1.000000     C
    C   1.0     0.053605     0.053636     0.446292  Biso 1.000000     C
    C   1.0     0.388855     0.110902     0.110894  Biso 1.000000     C
    C   1.0     0.446324     0.053607     0.053602  Biso 1.000000     C
    C   1.0     0.111050     0.389081     0.389062  Biso 1.000000     C
    C   1.0     0.053693     0.446363     0.446403  Biso 1.000000     C
    C   1.0     0.389039     0.111119     0.389014  Biso 1.000000     C
    C   1.0     0.446366     0.053727     0.446357  Biso 1.000000     C
    C   1.0     0.110929     0.388808     0.110959  Biso 1.000000     C
    C   1.0     0.053617     0.446264     0.053633  Biso 1.000000     C
    C   1.0     0.610932     0.611001     0.888914  Biso 1.000000     C
    C   1.0     0.553611     0.553660     0.946301  Biso 1.000000     C
    C   1.0     0.889080     0.889044     0.611193  Biso 1.000000     C
    C   1.0     0.946388     0.946366     0.553728  Biso 1.000000     C
    C   1.0     0.889063     0.611195     0.889060  Biso 1.000000     C
    C   1.0     0.946375     0.553738     0.946386  Biso 1.000000     C
    C   1.0     0.610954     0.888884     0.611006  Biso 1.000000     C
    C   1.0     0.553626     0.946276     0.553663  Biso 1.000000     C
    C   1.0     0.888943     0.610922     0.610957  Biso 1.000000     C
    C   1.0     0.946300     0.553640     0.553616  Biso 1.000000     C
    C   1.0     0.611137     0.889101     0.889125  Biso 1.000000     C
    C   1.0     0.553671     0.946396     0.946417  Biso 1.000000     C
    O   1.0     0.367072     0.367058     0.194904  Biso 1.000000     O
    O   1.0     0.366850     0.366750     0.071503  Biso 1.000000     O
    O   1.0     0.194711     0.071375     0.366661  Biso 1.000000     O
    O   1.0     0.071307     0.194741     0.366713  Biso 1.000000     O
    O   1.0     0.366751     0.194693     0.071292  Biso 1.000000     O
    O   1.0     0.366738     0.071307     0.194687  Biso 1.000000     O
    O   1.0     0.194873     0.367091     0.367103  Biso 1.000000     O
    O   1.0     0.071417     0.366839     0.366864  Biso 1.000000     O
    O   1.0     0.366828     0.071522     0.366757  Biso 1.000000     O
    O   1.0     0.367064     0.194914     0.367057  Biso 1.000000     O
    O   1.0     0.194727     0.366645     0.071374  Biso 1.000000     O
    O   1.0     0.071326     0.366687     0.194741  Biso 1.000000     O
    O   1.0     0.632921     0.632945     0.805115  Biso 1.000000     O
    O   1.0     0.633142     0.633254     0.928517  Biso 1.000000     O
    O   1.0     0.928685     0.805262     0.633306  Biso 1.000000     O
    O   1.0     0.805281     0.928628     0.633358  Biso 1.000000     O
    O   1.0     0.805266     0.633358     0.928645  Biso 1.000000     O
    O   1.0     0.928666     0.633316     0.805278  Biso 1.000000     O
    O   1.0     0.632929     0.805088     0.632962  Biso 1.000000     O
    O   1.0     0.633165     0.928481     0.633262  Biso 1.000000     O
    O   1.0     0.928576     0.633164     0.633155  Biso 1.000000     O
    O   1.0     0.805119     0.632912     0.632916  Biso 1.000000     O
    O   1.0     0.633242     0.805311     0.928727  Biso 1.000000     O
    O   1.0     0.633254     0.928697     0.805332  Biso 1.000000     O
    O   1.0     0.250013     0.250027     0.250026  Biso 1.000000     O
    O   1.0     0.749980     0.749976     0.749993  Biso 1.000000     O
   Zn   1.0     0.293604     0.293708     0.293691  Biso 1.000000    Zn
   Zn   1.0     0.293403     0.293255     0.119564  Biso 1.000000    Zn
   Zn   1.0     0.293379     0.119568     0.293259  Biso 1.000000    Zn
   Zn   1.0     0.119526     0.293382     0.293405  Biso 1.000000    Zn
   Zn   1.0     0.706389     0.706295     0.706328  Biso 1.000000    Zn
   Zn   1.0     0.706589     0.706748     0.880455  Biso 1.000000    Zn
   Zn   1.0     0.880467     0.706621     0.706614  Biso 1.000000    Zn
   Zn   1.0     0.706613     0.880435     0.706760  Biso 1.000000    Zn
