#======================================================================

# CRYSTAL DATA

#----------------------------------------------------------------------

data_VESTA_phase_1


_pd_phase_name                         MOF
_cell_length_a                         18.42500
_cell_length_b                         18.43200
_cell_length_c                         18.43300
_cell_angle_alpha                      60.13500
_cell_angle_beta                       60.15800
_cell_angle_gamma                      60.15700
_symmetry_space_group_name_H-M         "P 1"
_symmetry_Int_Tables_number            1

loop_
_symmetry_equiv_pos_as_xyz
   "x, y, z"

loop_
   _atom_site_label
   _atom_site_occupancy
   _atom_site_fract_x
   _atom_site_fract_y
   _atom_site_fract_z
   _atom_site_adp_type
   _atom_site_B_iso_or_equiv
   _atom_site_type_symbol
    H   1.0     0.048218     0.568068     0.048602  Biso 1.000000     H
    H   1.0     0.568097     0.047940     0.335648  Biso 1.000000     H
    H   1.0     0.048058     0.335673     0.047539  Biso 1.000000     H
    H   1.0     0.335638     0.048310     0.568170  Biso 1.000000     H
    H   1.0     0.048050     0.047538     0.335664  Biso 1.000000     H
    H   1.0     0.568095     0.335657     0.047940  Biso 1.000000     H
    H   1.0     0.048227     0.048594     0.568041  Biso 1.000000     H
    H   1.0     0.335636     0.568199     0.048320  Biso 1.000000     H
    H   1.0     0.048142     0.335652     0.568166  Biso 1.000000     H
    H   1.0     0.568129     0.048373     0.048374  Biso 1.000000     H
    H   1.0     0.048139     0.568197     0.335651  Biso 1.000000     H
    H   1.0     0.335641     0.047759     0.047771  Biso 1.000000     H
    H   1.0     0.431890     0.951634     0.951608  Biso 1.000000     H
    H   1.0     0.951878     0.431810     0.664332  Biso 1.000000     H
    H   1.0     0.664379     0.952249     0.952212  Biso 1.000000     H
    H   1.0     0.951875     0.664356     0.431816  Biso 1.000000     H
    H   1.0     0.951969     0.952471     0.664318  Biso 1.000000     H
    H   1.0     0.664383     0.431809     0.951663  Biso 1.000000     H
    H   1.0     0.951792     0.951415     0.431941  Biso 1.000000     H
    H   1.0     0.431925     0.664351     0.952044  Biso 1.000000     H
    H   1.0     0.664382     0.951698     0.431812  Biso 1.000000     H
    H   1.0     0.951799     0.431940     0.951382  Biso 1.000000     H
    H   1.0     0.431923     0.952068     0.664334  Biso 1.000000     H
    H   1.0     0.951959     0.664335     0.952445  Biso 1.000000     H
    C   1.0     0.026713     0.539017     0.026930  Biso 1.000000     C
    C   1.0     0.539056     0.026547     0.407641  Biso 1.000000     C
    C   1.0     0.026624     0.407665     0.026328  Biso 1.000000     C
    C   1.0     0.407642     0.026761     0.539083  Biso 1.000000     C
    C   1.0     0.026619     0.026325     0.407652  Biso 1.000000     C
    C   1.0     0.539054     0.407655     0.026549  Biso 1.000000     C
    C   1.0     0.026718     0.026923     0.538993  Biso 1.000000     C
    C   1.0     0.407640     0.539107     0.026769  Biso 1.000000     C
    C   1.0     0.026675     0.407649     0.539078  Biso 1.000000     C
    C   1.0     0.539039     0.026806     0.026801  Biso 1.000000     C
    C   1.0     0.026674     0.539100     0.407643  Biso 1.000000     C
    C   1.0     0.407645     0.026463     0.026465  Biso 1.000000     C
    C   1.0     0.460981     0.973205     0.973177  Biso 1.000000     C
    C   1.0     0.973345     0.460907     0.592339  Biso 1.000000     C
    C   1.0     0.592374     0.973548     0.973513  Biso 1.000000     C
    C   1.0     0.973344     0.592358     0.460905  Biso 1.000000     C
    C   1.0     0.973401     0.973683     0.592331  Biso 1.000000     C
    C   1.0     0.592380     0.460901     0.973211  Biso 1.000000     C
    C   1.0     0.973302     0.973084     0.460989  Biso 1.000000     C
    C   1.0     0.460965     0.592353     0.973431  Biso 1.000000     C
    C   1.0     0.592378     0.973247     0.460899  Biso 1.000000     C
    C   1.0     0.973309     0.460991     0.973049  Biso 1.000000     C
    C   1.0     0.460964     0.973462     0.592341  Biso 1.000000     C
    C   1.0     0.973399     0.592343     0.973651  Biso 1.000000     C
    C   1.0     0.111014     0.388968     0.110947  Biso 1.000000     C
    C   1.0     0.053673     0.446324     0.053613  Biso 1.000000     C
    C   1.0     0.389022     0.111139     0.389111  Biso 1.000000     C
    C   1.0     0.446362     0.053673     0.446401  Biso 1.000000     C
    C   1.0     0.111011     0.110947     0.388953  Biso 1.000000     C
    C   1.0     0.053675     0.053607     0.446306  Biso 1.000000     C
    C   1.0     0.389020     0.389127     0.111140  Biso 1.000000     C
    C   1.0     0.446360     0.446419     0.053680  Biso 1.000000     C
    C   1.0     0.111121     0.389123     0.389106  Biso 1.000000     C
    C   1.0     0.053690     0.446409     0.446393  Biso 1.000000     C
    C   1.0     0.388975     0.110938     0.110951  Biso 1.000000     C
    C   1.0     0.446322     0.053622     0.053635  Biso 1.000000     C
    C   1.0     0.611044     0.889067     0.889034  Biso 1.000000     C
    C   1.0     0.553698     0.946380     0.946353  Biso 1.000000     C
    C   1.0     0.888895     0.610884     0.610877  Biso 1.000000     C
    C   1.0     0.946324     0.553598     0.553589  Biso 1.000000     C
    C   1.0     0.889007     0.889062     0.611029  Biso 1.000000     C
    C   1.0     0.946342     0.946403     0.553676  Biso 1.000000     C
    C   1.0     0.610999     0.610880     0.888846  Biso 1.000000     C
    C   1.0     0.553660     0.553588     0.946308  Biso 1.000000     C
    C   1.0     0.610998     0.888870     0.610870  Biso 1.000000     C
    C   1.0     0.553659     0.946336     0.553580  Biso 1.000000     C
    C   1.0     0.889001     0.611040     0.889040  Biso 1.000000     C
    C   1.0     0.946338     0.553684     0.946377  Biso 1.000000     C
    O   1.0     0.249973     0.250026     0.250019  Biso 1.000000     O
    O   1.0     0.750046     0.749982     0.749963  Biso 1.000000     O
    O   1.0     0.133194     0.428600     0.133189  Biso 1.000000     O
    O   1.0     0.428598     0.133304     0.305328  Biso 1.000000     O
    O   1.0     0.133023     0.305163     0.132914  Biso 1.000000     O
    O   1.0     0.305230     0.133287     0.428719  Biso 1.000000     O
    O   1.0     0.133013     0.132921     0.305153  Biso 1.000000     O
    O   1.0     0.428597     0.305339     0.133300  Biso 1.000000     O
    O   1.0     0.133200     0.133183     0.428582  Biso 1.000000     O
    O   1.0     0.305228     0.428739     0.133288  Biso 1.000000     O
    O   1.0     0.133275     0.305331     0.428706  Biso 1.000000     O
    O   1.0     0.428623     0.133159     0.133153  Biso 1.000000     O
    O   1.0     0.133277     0.428730     0.305319  Biso 1.000000     O
    O   1.0     0.305150     0.132926     0.132931  Biso 1.000000     O
    O   1.0     0.571396     0.866852     0.866826  Biso 1.000000     O
    O   1.0     0.866744     0.571277     0.694663  Biso 1.000000     O
    O   1.0     0.694869     0.867085     0.867048  Biso 1.000000     O
    O   1.0     0.866745     0.694677     0.571276  Biso 1.000000     O
    O   1.0     0.867007     0.867086     0.694829  Biso 1.000000     O
    O   1.0     0.694791     0.571269     0.866693  Biso 1.000000     O
    O   1.0     0.866822     0.866823     0.571400  Biso 1.000000     O
    O   1.0     0.571423     0.694669     0.866680  Biso 1.000000     O
    O   1.0     0.694790     0.866723     0.571262  Biso 1.000000     O
    O   1.0     0.866829     0.571408     0.866789  Biso 1.000000     O
    O   1.0     0.571423     0.866703     0.694653  Biso 1.000000     O
    O   1.0     0.867000     0.694845     0.867065  Biso 1.000000     O
   Zn   1.0     0.206602     0.380498     0.206749  Biso 1.000000    Zn
   Zn   1.0     0.380461     0.206635     0.206629  Biso 1.000000    Zn
   Zn   1.0     0.206425     0.206339     0.206338  Biso 1.000000    Zn
   Zn   1.0     0.206602     0.206752     0.380482  Biso 1.000000    Zn
   Zn   1.0     0.619558     0.793373     0.793353  Biso 1.000000    Zn
   Zn   1.0     0.793417     0.619510     0.793233  Biso 1.000000    Zn
   Zn   1.0     0.793595     0.793669     0.793644  Biso 1.000000    Zn
   Zn   1.0     0.793418     0.793256     0.619500  Biso 1.000000    Zn
