#======================================================================

# CRYSTAL DATA

#----------------------------------------------------------------------

data_VESTA_phase_1


_pd_phase_name                         MOF
_cell_length_a                         18.42200
_cell_length_b                         18.42700
_cell_length_c                         18.42600
_cell_angle_alpha                      60.19800
_cell_angle_beta                       60.17100
_cell_angle_gamma                      60.17200
_symmetry_space_group_name_H-M         "P 1"
_symmetry_Int_Tables_number            1

loop_
_symmetry_equiv_pos_as_xyz
   "x, y, z"

loop_
   _atom_site_label
   _atom_site_occupancy
   _atom_site_fract_x
   _atom_site_fract_y
   _atom_site_fract_z
   _atom_site_adp_type
   _atom_site_B_iso_or_equiv
   _atom_site_type_symbol
    H   1.0     0.048426     0.568091     0.048438  Biso 1.000000     H
    H   1.0     0.568199     0.048077     0.335699  Biso 1.000000     H
    H   1.0     0.047738     0.335699     0.047752  Biso 1.000000     H
    H   1.0     0.335597     0.048163     0.568115  Biso 1.000000     H
    H   1.0     0.047737     0.047760     0.335708  Biso 1.000000     H
    H   1.0     0.568193     0.335691     0.048073  Biso 1.000000     H
    H   1.0     0.048432     0.048436     0.568114  Biso 1.000000     H
    H   1.0     0.335591     0.568088     0.048170  Biso 1.000000     H
    H   1.0     0.048148     0.335691     0.568077  Biso 1.000000     H
    H   1.0     0.568152     0.048395     0.048405  Biso 1.000000     H
    H   1.0     0.048151     0.568050     0.335700  Biso 1.000000     H
    H   1.0     0.335604     0.047810     0.047821  Biso 1.000000     H
    H   1.0     0.431832     0.951588     0.951617  Biso 1.000000     H
    H   1.0     0.951834     0.431933     0.664321  Biso 1.000000     H
    H   1.0     0.664380     0.952173     0.952201  Biso 1.000000     H
    H   1.0     0.951837     0.664291     0.431944  Biso 1.000000     H
    H   1.0     0.952250     0.952221     0.664313  Biso 1.000000     H
    H   1.0     0.664394     0.431894     0.951850  Biso 1.000000     H
    H   1.0     0.951555     0.951545     0.431906  Biso 1.000000     H
    H   1.0     0.431792     0.664291     0.951947  Biso 1.000000     H
    H   1.0     0.664388     0.951819     0.431905  Biso 1.000000     H
    H   1.0     0.951559     0.431891     0.951582  Biso 1.000000     H
    H   1.0     0.431786     0.951906     0.664321  Biso 1.000000     H
    H   1.0     0.952248     0.664283     0.952268  Biso 1.000000     H
    C   1.0     0.026836     0.539013     0.026838  Biso 1.000000     C
    C   1.0     0.539105     0.026613     0.407678  Biso 1.000000     C
    C   1.0     0.026439     0.407672     0.026445  Biso 1.000000     C
    C   1.0     0.407614     0.026660     0.539061  Biso 1.000000     C
    C   1.0     0.026446     0.026444     0.407686  Biso 1.000000     C
    C   1.0     0.539100     0.407665     0.026621  Biso 1.000000     C
    C   1.0     0.026848     0.026831     0.539035  Biso 1.000000     C
    C   1.0     0.407608     0.539038     0.026675  Biso 1.000000     C
    C   1.0     0.026648     0.407665     0.539049  Biso 1.000000     C
    C   1.0     0.539047     0.026822     0.026817  Biso 1.000000     C
    C   1.0     0.026650     0.539025     0.407679  Biso 1.000000     C
    C   1.0     0.407618     0.026486     0.026481  Biso 1.000000     C
    C   1.0     0.460936     0.973161     0.973206  Biso 1.000000     C
    C   1.0     0.973331     0.460958     0.592343  Biso 1.000000     C
    C   1.0     0.592366     0.973496     0.973541  Biso 1.000000     C
    C   1.0     0.973333     0.592318     0.460972  Biso 1.000000     C
    C   1.0     0.973539     0.973538     0.592335  Biso 1.000000     C
    C   1.0     0.592377     0.460944     0.973345  Biso 1.000000     C
    C   1.0     0.973137     0.973152     0.460985  Biso 1.000000     C
    C   1.0     0.460886     0.592317     0.973399  Biso 1.000000     C
    C   1.0     0.592372     0.973316     0.460959  Biso 1.000000     C
    C   1.0     0.973150     0.460969     0.973181  Biso 1.000000     C
    C   1.0     0.460880     0.973364     0.592342  Biso 1.000000     C
    C   1.0     0.973547     0.592310     0.973575  Biso 1.000000     C
    C   1.0     0.110923     0.389016     0.110974  Biso 1.000000     C
    C   1.0     0.053618     0.446341     0.053643  Biso 1.000000     C
    C   1.0     0.389093     0.111080     0.389098  Biso 1.000000     C
    C   1.0     0.446392     0.053661     0.446397  Biso 1.000000     C
    C   1.0     0.110926     0.110973     0.389030  Biso 1.000000     C
    C   1.0     0.053616     0.053649     0.446357  Biso 1.000000     C
    C   1.0     0.389090     0.389083     0.111079  Biso 1.000000     C
    C   1.0     0.446387     0.446381     0.053656  Biso 1.000000     C
    C   1.0     0.111080     0.389051     0.389067  Biso 1.000000     C
    C   1.0     0.053678     0.446373     0.446392  Biso 1.000000     C
    C   1.0     0.388968     0.110997     0.111006  Biso 1.000000     C
    C   1.0     0.446323     0.053647     0.053659  Biso 1.000000     C
    C   1.0     0.611016     0.888985     0.889017  Biso 1.000000     C
    C   1.0     0.553660     0.946336     0.946362  Biso 1.000000     C
    C   1.0     0.888902     0.610932     0.610954  Biso 1.000000     C
    C   1.0     0.946308     0.553610     0.553630  Biso 1.000000     C
    C   1.0     0.889061     0.889008     0.610990  Biso 1.000000     C
    C   1.0     0.946370     0.946332     0.553663  Biso 1.000000     C
    C   1.0     0.610896     0.610899     0.888939  Biso 1.000000     C
    C   1.0     0.553599     0.553602     0.946366  Biso 1.000000     C
    C   1.0     0.610892     0.888902     0.610922  Biso 1.000000     C
    C   1.0     0.553593     0.946322     0.553623  Biso 1.000000     C
    C   1.0     0.889061     0.610966     0.889047  Biso 1.000000     C
    C   1.0     0.946368     0.553641     0.946376  Biso 1.000000     C
    O   1.0     0.249997     0.250002     0.250012  Biso 1.000000     O
    O   1.0     0.749987     0.749981     0.750009  Biso 1.000000     O
    O   1.0     0.133203     0.428656     0.133155  Biso 1.000000     O
    O   1.0     0.428705     0.133308     0.305330  Biso 1.000000     O
    O   1.0     0.132818     0.305225     0.133018  Biso 1.000000     O
    O   1.0     0.305285     0.133184     0.428686  Biso 1.000000     O
    O   1.0     0.132808     0.133031     0.305233  Biso 1.000000     O
    O   1.0     0.428703     0.305321     0.133297  Biso 1.000000     O
    O   1.0     0.133217     0.133140     0.428674  Biso 1.000000     O
    O   1.0     0.305282     0.428665     0.133194  Biso 1.000000     O
    O   1.0     0.133239     0.305299     0.428634  Biso 1.000000     O
    O   1.0     0.428637     0.133217     0.133216  Biso 1.000000     O
    O   1.0     0.133242     0.428619     0.305310  Biso 1.000000     O
    O   1.0     0.305133     0.132991     0.132995  Biso 1.000000     O
    O   1.0     0.571347     0.866767     0.866804  Biso 1.000000     O
    O   1.0     0.866744     0.571364     0.694712  Biso 1.000000     O
    O   1.0     0.694851     0.866991     0.867028  Biso 1.000000     O
    O   1.0     0.866745     0.694684     0.571387  Biso 1.000000     O
    O   1.0     0.867175     0.866953     0.694788  Biso 1.000000     O
    O   1.0     0.694704     0.571317     0.866827  Biso 1.000000     O
    O   1.0     0.866771     0.866840     0.571346  Biso 1.000000     O
    O   1.0     0.571282     0.694661     0.866723  Biso 1.000000     O
    O   1.0     0.694700     0.866801     0.571335  Biso 1.000000     O
    O   1.0     0.866782     0.571326     0.866865  Biso 1.000000     O
    O   1.0     0.571280     0.866676     0.694690  Biso 1.000000     O
    O   1.0     0.867168     0.694758     0.867001  Biso 1.000000     O
   Zn   1.0     0.206690     0.380415     0.206650  Biso 1.000000    Zn
   Zn   1.0     0.380499     0.206720     0.206723  Biso 1.000000    Zn
   Zn   1.0     0.206189     0.206405     0.206406  Biso 1.000000    Zn
   Zn   1.0     0.206692     0.206640     0.380434  Biso 1.000000    Zn
   Zn   1.0     0.619485     0.793264     0.793298  Biso 1.000000    Zn
   Zn   1.0     0.793295     0.619569     0.793371  Biso 1.000000    Zn
   Zn   1.0     0.793795     0.793578     0.793616  Biso 1.000000    Zn
   Zn   1.0     0.793293     0.793343     0.619588  Biso 1.000000    Zn
