#======================================================================

# CRYSTAL DATA

#----------------------------------------------------------------------

data_VESTA_phase_1


_pd_phase_name                         MOF
_cell_length_a                         18.38500
_cell_length_b                         18.40100
_cell_length_c                         18.39600
_cell_angle_alpha                      60.42200
_cell_angle_beta                       60.39500
_cell_angle_gamma                      60.40500
_symmetry_space_group_name_H-M         "P 1"
_symmetry_Int_Tables_number            1

loop_
_symmetry_equiv_pos_as_xyz
   "x, y, z"

loop_
   _atom_site_label
   _atom_site_occupancy
   _atom_site_fract_x
   _atom_site_fract_y
   _atom_site_fract_z
   _atom_site_adp_type
   _atom_site_B_iso_or_equiv
   _atom_site_type_symbol
    H   1.0     0.453089     0.452868     0.164062  Biso 1.000000     H
    H   1.0     0.450866     0.450815     0.932708  Biso 1.000000     H
    H   1.0     0.164244     0.932252     0.451407  Biso 1.000000     H
    H   1.0     0.931880     0.164044     0.451605  Biso 1.000000     H
    H   1.0     0.451598     0.164052     0.932021  Biso 1.000000     H
    H   1.0     0.451511     0.932187     0.164114  Biso 1.000000     H
    H   1.0     0.164199     0.452832     0.452897  Biso 1.000000     H
    H   1.0     0.932511     0.450943     0.450956  Biso 1.000000     H
    H   1.0     0.450783     0.932859     0.450736  Biso 1.000000     H
    H   1.0     0.453118     0.163997     0.452969  Biso 1.000000     H
    H   1.0     0.164250     0.451435     0.932124  Biso 1.000000     H
    H   1.0     0.931919     0.451541     0.164107  Biso 1.000000     H
    H   1.0     0.546925     0.547122     0.835910  Biso 1.000000     H
    H   1.0     0.549148     0.549175     0.067264  Biso 1.000000     H
    H   1.0     0.068130     0.835949     0.548369  Biso 1.000000     H
    H   1.0     0.835766     0.067741     0.548567  Biso 1.000000     H
    H   1.0     0.835761     0.548556     0.067847  Biso 1.000000     H
    H   1.0     0.068092     0.548450     0.835864  Biso 1.000000     H
    H   1.0     0.546901     0.835996     0.546994  Biso 1.000000     H
    H   1.0     0.549235     0.067134     0.549227  Biso 1.000000     H
    H   1.0     0.067499     0.549053     0.549014  Biso 1.000000     H
    H   1.0     0.835812     0.547164     0.547073  Biso 1.000000     H
    H   1.0     0.548415     0.835942     0.067951  Biso 1.000000     H
    H   1.0     0.548502     0.067807     0.835859  Biso 1.000000     H
    C   1.0     0.474023     0.473883     0.092193  Biso 1.000000     C
    C   1.0     0.472785     0.472741     0.961408  Biso 1.000000     C
    C   1.0     0.092289     0.961133     0.473094  Biso 1.000000     C
    C   1.0     0.960945     0.092186     0.473196  Biso 1.000000     C
    C   1.0     0.473205     0.092190     0.961004  Biso 1.000000     C
    C   1.0     0.473153     0.961099     0.092220  Biso 1.000000     C
    C   1.0     0.092267     0.473871     0.473897  Biso 1.000000     C
    C   1.0     0.961326     0.472815     0.472812  Biso 1.000000     C
    C   1.0     0.472732     0.961495     0.472700  Biso 1.000000     C
    C   1.0     0.474037     0.092159     0.473943  Biso 1.000000     C
    C   1.0     0.092297     0.473113     0.961055  Biso 1.000000     C
    C   1.0     0.960962     0.473163     0.092219  Biso 1.000000     C
    C   1.0     0.525993     0.526105     0.907780  Biso 1.000000     C
    C   1.0     0.527230     0.527247     0.038564  Biso 1.000000     C
    C   1.0     0.039064     0.907808     0.526776  Biso 1.000000     C
    C   1.0     0.907721     0.038861     0.526879  Biso 1.000000     C
    C   1.0     0.907714     0.526878     0.038916  Biso 1.000000     C
    C   1.0     0.039049     0.526828     0.907752  Biso 1.000000     C
    C   1.0     0.525983     0.907834     0.526019  Biso 1.000000     C
    C   1.0     0.527288     0.038498     0.527263  Biso 1.000000     C
    C   1.0     0.038684     0.527181     0.527158  Biso 1.000000     C
    C   1.0     0.907744     0.526126     0.526073  Biso 1.000000     C
    C   1.0     0.526809     0.907804     0.038969  Biso 1.000000     C
    C   1.0     0.526861     0.038896     0.907752  Biso 1.000000     C
    C   1.0     0.389160     0.388890     0.111516  Biso 1.000000     C
    C   1.0     0.446427     0.446287     0.053974  Biso 1.000000     C
    C   1.0     0.110843     0.110961     0.388285  Biso 1.000000     C
    C   1.0     0.053561     0.053651     0.445929  Biso 1.000000     C
    C   1.0     0.388361     0.110922     0.110868  Biso 1.000000     C
    C   1.0     0.445980     0.053620     0.053581  Biso 1.000000     C
    C   1.0     0.111459     0.388967     0.389045  Biso 1.000000     C
    C   1.0     0.053938     0.446321     0.446364  Biso 1.000000     C
    C   1.0     0.389116     0.111566     0.388944  Biso 1.000000     C
    C   1.0     0.446416     0.054005     0.446307  Biso 1.000000     C
    C   1.0     0.110869     0.388238     0.110929  Biso 1.000000     C
    C   1.0     0.053574     0.445905     0.053626  Biso 1.000000     C
    C   1.0     0.610856     0.611098     0.888456  Biso 1.000000     C
    C   1.0     0.553583     0.553706     0.945998  Biso 1.000000     C
    C   1.0     0.889167     0.889032     0.611684  Biso 1.000000     C
    C   1.0     0.946449     0.946343     0.554046  Biso 1.000000     C
    C   1.0     0.889142     0.611754     0.889043  Biso 1.000000     C
    C   1.0     0.946437     0.554088     0.946345  Biso 1.000000     C
    C   1.0     0.610902     0.888428     0.611020  Biso 1.000000     C
    C   1.0     0.553596     0.945988     0.553663  Biso 1.000000     C
    C   1.0     0.888551     0.611028     0.610925  Biso 1.000000     C
    C   1.0     0.946073     0.553673     0.553607  Biso 1.000000     C
    C   1.0     0.611653     0.889072     0.889105  Biso 1.000000     C
    C   1.0     0.554030     0.946374     0.946391  Biso 1.000000     C
    O   1.0     0.250096     0.250119     0.250098  Biso 1.000000     O
    O   1.0     0.749914     0.749874     0.749874  Biso 1.000000     O
    O   1.0     0.367528     0.367119     0.195193  Biso 1.000000     O
    O   1.0     0.366620     0.366439     0.072078  Biso 1.000000     O
    O   1.0     0.194570     0.071529     0.366117  Biso 1.000000     O
    O   1.0     0.071327     0.194581     0.365941  Biso 1.000000     O
    O   1.0     0.366074     0.194543     0.071411  Biso 1.000000     O
    O   1.0     0.366144     0.071497     0.194524  Biso 1.000000     O
    O   1.0     0.195210     0.367211     0.367323  Biso 1.000000     O
    O   1.0     0.071943     0.366514     0.366580  Biso 1.000000     O
    O   1.0     0.366570     0.072170     0.366459  Biso 1.000000     O
    O   1.0     0.367476     0.195207     0.367224  Biso 1.000000     O
    O   1.0     0.194594     0.366052     0.071461  Biso 1.000000     O
    O   1.0     0.071354     0.365908     0.194584  Biso 1.000000     O
    O   1.0     0.632483     0.632874     0.804779  Biso 1.000000     O
    O   1.0     0.633390     0.633554     0.927894  Biso 1.000000     O
    O   1.0     0.928683     0.805412     0.634029  Biso 1.000000     O
    O   1.0     0.805440     0.928465     0.633852  Biso 1.000000     O
    O   1.0     0.805417     0.633944     0.928510  Biso 1.000000     O
    O   1.0     0.928657     0.634088     0.805388  Biso 1.000000     O
    O   1.0     0.632534     0.804787     0.632748  Biso 1.000000     O
    O   1.0     0.633435     0.927824     0.633518  Biso 1.000000     O
    O   1.0     0.928067     0.633476     0.633395  Biso 1.000000     O
    O   1.0     0.804800     0.632784     0.632648  Biso 1.000000     O
    O   1.0     0.633935     0.805451     0.928562  Biso 1.000000     O
    O   1.0     0.633868     0.928497     0.805448  Biso 1.000000     O
   Zn   1.0     0.294058     0.293881     0.293932  Biso 1.000000    Zn
   Zn   1.0     0.293100     0.292970     0.119834  Biso 1.000000    Zn
   Zn   1.0     0.293069     0.119911     0.292973  Biso 1.000000    Zn
   Zn   1.0     0.119714     0.293030     0.293068  Biso 1.000000    Zn
   Zn   1.0     0.705952     0.706113     0.706041  Biso 1.000000    Zn
   Zn   1.0     0.706910     0.707024     0.880139  Biso 1.000000    Zn
   Zn   1.0     0.880296     0.706963     0.706904  Biso 1.000000    Zn
   Zn   1.0     0.706941     0.880082     0.706999  Biso 1.000000    Zn
