#======================================================================

# CRYSTAL DATA

#----------------------------------------------------------------------

data_VESTA_phase_1


_pd_phase_name                         MOF
_cell_length_a                         20.75000
_cell_length_b                         25.12800
_cell_length_c                         20.21800
_cell_angle_alpha                      90.02400
_cell_angle_beta                       89.98800
_cell_angle_gamma                      90.03600
_symmetry_space_group_name_H-M         "P 1"
_symmetry_Int_Tables_number            1

loop_
_symmetry_equiv_pos_as_xyz
   "x, y, z"

loop_
   _atom_site_label
   _atom_site_occupancy
   _atom_site_fract_x
   _atom_site_fract_y
   _atom_site_fract_z
   _atom_site_adp_type
   _atom_site_B_iso_or_equiv
   _atom_site_type_symbol
    H   1.0     0.475298     0.234841     0.823134  Biso 1.000000     H
    H   1.0     0.475300     0.734867     0.823120  Biso 1.000000     H
    H   1.0     0.975299     0.234841     0.823134  Biso 1.000000     H
    H   1.0     0.975300     0.734867     0.823120  Biso 1.000000     H
    H   1.0     0.279953     0.291037     0.818664  Biso 1.000000     H
    H   1.0     0.280009     0.791190     0.818606  Biso 1.000000     H
    H   1.0     0.779957     0.291047     0.818660  Biso 1.000000     H
    H   1.0     0.780009     0.791190     0.818606  Biso 1.000000     H
    H   1.0     0.467526     0.210297     0.702963  Biso 1.000000     H
    H   1.0     0.467527     0.710325     0.702948  Biso 1.000000     H
    H   1.0     0.967526     0.210297     0.702962  Biso 1.000000     H
    H   1.0     0.967527     0.710325     0.702948  Biso 1.000000     H
    H   1.0     0.272318     0.266830     0.698591  Biso 1.000000     H
    H   1.0     0.272375     0.766989     0.698532  Biso 1.000000     H
    H   1.0     0.772321     0.266839     0.698587  Biso 1.000000     H
    H   1.0     0.772376     0.766989     0.698531  Biso 1.000000     H
    H   1.0     0.359602     0.485478     0.000000  Biso 1.000000     H
    H   1.0     0.359595     0.985488     0.000000  Biso 1.000000     H
    H   1.0     0.859602     0.485478     0.000000  Biso 1.000000     H
    H   1.0     0.859595     0.985488     0.000000  Biso 1.000000     H
    H   1.0     0.310885     0.480980     0.887327  Biso 1.000000     H
    H   1.0     0.310878     0.980971     0.887305  Biso 1.000000     H
    H   1.0     0.810886     0.480981     0.887328  Biso 1.000000     H
    H   1.0     0.810878     0.980970     0.887304  Biso 1.000000     H
    H   1.0     0.396932     0.479851     0.883360  Biso 1.000000     H
    H   1.0     0.396924     0.979832     0.883330  Biso 1.000000     H
    H   1.0     0.896933     0.479852     0.883361  Biso 1.000000     H
    H   1.0     0.896924     0.979832     0.883329  Biso 1.000000     H
    H   1.0     0.351643     0.419831     0.872302  Biso 1.000000     H
    H   1.0     0.351627     0.919814     0.872296  Biso 1.000000     H
    H   1.0     0.851643     0.419833     0.872302  Biso 1.000000     H
    H   1.0     0.851628     0.919813     0.872296  Biso 1.000000     H
    H   1.0     0.274603     0.265116     0.323144  Biso 1.000000     H
    H   1.0     0.274617     0.765163     0.323155  Biso 1.000000     H
    H   1.0     0.774603     0.265116     0.323144  Biso 1.000000     H
    H   1.0     0.774617     0.765163     0.323155  Biso 1.000000     H
    H   1.0     0.470092     0.209254     0.318671  Biso 1.000000     H
    H   1.0     0.470070     0.709216     0.318654  Biso 1.000000     H
    H   1.0     0.970092     0.209254     0.318671  Biso 1.000000     H
    H   1.0     0.970070     0.709216     0.318654  Biso 1.000000     H
    H   1.0     0.282387     0.289662     0.202997  Biso 1.000000     H
    H   1.0     0.282402     0.789709     0.203009  Biso 1.000000     H
    H   1.0     0.782387     0.289662     0.202997  Biso 1.000000     H
    H   1.0     0.782402     0.789710     0.203009  Biso 1.000000     H
    H   1.0     0.477738     0.233461     0.198621  Biso 1.000000     H
    H   1.0     0.477715     0.733420     0.198603  Biso 1.000000     H
    H   1.0     0.977738     0.233460     0.198621  Biso 1.000000     H
    H   1.0     0.977716     0.733421     0.198604  Biso 1.000000     H
    H   1.0     0.390766     0.014804     0.500025  Biso 1.000000     H
    H   1.0     0.390762     0.514813     0.500039  Biso 1.000000     H
    H   1.0     0.890766     0.014804     0.500024  Biso 1.000000     H
    H   1.0     0.890763     0.514813     0.500039  Biso 1.000000     H
    H   1.0     0.438557     0.019010     0.386166  Biso 1.000000     H
    H   1.0     0.438547     0.519004     0.386175  Biso 1.000000     H
    H   1.0     0.938558     0.019011     0.386166  Biso 1.000000     H
    H   1.0     0.938548     0.519005     0.386174  Biso 1.000000     H
    H   1.0     0.352457     0.019796     0.382910  Biso 1.000000     H
    H   1.0     0.352447     0.519786     0.382928  Biso 1.000000     H
    H   1.0     0.852458     0.019797     0.382910  Biso 1.000000     H
    H   1.0     0.852447     0.519786     0.382928  Biso 1.000000     H
    H   1.0     0.397345     0.079937     0.371125  Biso 1.000000     H
    H   1.0     0.397329     0.579926     0.371124  Biso 1.000000     H
    H   1.0     0.897346     0.079938     0.371125  Biso 1.000000     H
    H   1.0     0.897329     0.579927     0.371124  Biso 1.000000     H
    H   1.0     0.024389     0.484800     0.677074  Biso 1.000000     H
    H   1.0     0.024276     0.985089     0.677189  Biso 1.000000     H
    H   1.0     0.524389     0.484800     0.677073  Biso 1.000000     H
    H   1.0     0.524276     0.985089     0.677189  Biso 1.000000     H
    H   1.0     0.220009     0.040595     0.681088  Biso 1.000000     H
    H   1.0     0.219934     0.540746     0.681140  Biso 1.000000     H
    H   1.0     0.720010     0.040594     0.681088  Biso 1.000000     H
    H   1.0     0.719935     0.540745     0.681139  Biso 1.000000     H
    H   1.0     0.032404     0.460146     0.797160  Biso 1.000000     H
    H   1.0     0.032294     0.960454     0.797282  Biso 1.000000     H
    H   1.0     0.532404     0.460146     0.797160  Biso 1.000000     H
    H   1.0     0.532294     0.960454     0.797281  Biso 1.000000     H
    H   1.0     0.227902     0.016283     0.801080  Biso 1.000000     H
    H   1.0     0.227826     0.516404     0.801123  Biso 1.000000     H
    H   1.0     0.727902     0.016282     0.801080  Biso 1.000000     H
    H   1.0     0.727827     0.516404     0.801123  Biso 1.000000     H
    H   1.0     0.140931     0.235212     0.500018  Biso 1.000000     H
    H   1.0     0.140926     0.735213     0.499938  Biso 1.000000     H
    H   1.0     0.640931     0.235212     0.500018  Biso 1.000000     H
    H   1.0     0.640926     0.735213     0.499938  Biso 1.000000     H
    H   1.0     0.188832     0.230861     0.613836  Biso 1.000000     H
    H   1.0     0.188825     0.730948     0.613764  Biso 1.000000     H
    H   1.0     0.688833     0.230861     0.613836  Biso 1.000000     H
    H   1.0     0.688825     0.730948     0.613764  Biso 1.000000     H
    H   1.0     0.102730     0.230266     0.617154  Biso 1.000000     H
    H   1.0     0.102722     0.730361     0.617075  Biso 1.000000     H
    H   1.0     0.602730     0.230267     0.617154  Biso 1.000000     H
    H   1.0     0.602722     0.730360     0.617075  Biso 1.000000     H
    H   1.0     0.147338     0.170025     0.628877  Biso 1.000000     H
    H   1.0     0.147324     0.670126     0.628875  Biso 1.000000     H
    H   1.0     0.647338     0.170025     0.628877  Biso 1.000000     H
    H   1.0     0.647324     0.670126     0.628875  Biso 1.000000     H
    H   1.0     0.225397     0.015151     0.176953  Biso 1.000000     H
    H   1.0     0.225355     0.515250     0.176918  Biso 1.000000     H
    H   1.0     0.725398     0.015150     0.176954  Biso 1.000000     H
    H   1.0     0.725355     0.515251     0.176917  Biso 1.000000     H
    H   1.0     0.029863     0.459190     0.181268  Biso 1.000000     H
    H   1.0     0.029827     0.959270     0.181244  Biso 1.000000     H
    H   1.0     0.529863     0.459189     0.181269  Biso 1.000000     H
    H   1.0     0.529827     0.959270     0.181244  Biso 1.000000     H
    H   1.0     0.217571     0.039677     0.297135  Biso 1.000000     H
    H   1.0     0.217531     0.539774     0.297099  Biso 1.000000     H
    H   1.0     0.717571     0.039677     0.297135  Biso 1.000000     H
    H   1.0     0.717530     0.539775     0.297099  Biso 1.000000     H
    H   1.0     0.022173     0.483377     0.301351  Biso 1.000000     H
    H   1.0     0.022134     0.983459     0.301326  Biso 1.000000     H
    H   1.0     0.522173     0.483377     0.301351  Biso 1.000000     H
    H   1.0     0.522134     0.983459     0.301326  Biso 1.000000     H
    H   1.0     0.109138     0.264766    -0.000148  Biso 1.000000     H
    H   1.0     0.109129     0.764772     0.000006  Biso 1.000000     H
    H   1.0     0.609139     0.264766    -0.000147  Biso 1.000000     H
    H   1.0     0.609130     0.764772     0.000006  Biso 1.000000     H
    H   1.0     0.061052     0.269107     0.113601  Biso 1.000000     H
    H   1.0     0.061037     0.769282     0.113744  Biso 1.000000     H
    H   1.0     0.561052     0.269108     0.113602  Biso 1.000000     H
    H   1.0     0.561037     0.769282     0.113744  Biso 1.000000     H
    H   1.0     0.147145     0.269762     0.117053  Biso 1.000000     H
    H   1.0     0.147130     0.769928     0.117201  Biso 1.000000     H
    H   1.0     0.647145     0.269762     0.117053  Biso 1.000000     H
    H   1.0     0.647130     0.769928     0.117201  Biso 1.000000     H
    H   1.0     0.102455     0.329977     0.128747  Biso 1.000000     H
    H   1.0     0.102452     0.830167     0.128759  Biso 1.000000     H
    H   1.0     0.602455     0.329978     0.128747  Biso 1.000000     H
    H   1.0     0.602452     0.830167     0.128759  Biso 1.000000     H
    C   1.0     0.382709     0.279933     0.899186  Biso 1.000000     C
    C   1.0     0.382718     0.779972     0.899170  Biso 1.000000     C
    C   1.0     0.882710     0.279936     0.899184  Biso 1.000000     C
    C   1.0     0.882718     0.779971     0.899170  Biso 1.000000     C
    C   1.0     0.377999     0.264223     0.827908  Biso 1.000000     C
    C   1.0     0.378022     0.764300     0.827877  Biso 1.000000     C
    C   1.0     0.878000     0.264227     0.827906  Biso 1.000000     C
    C   1.0     0.878022     0.764300     0.827877  Biso 1.000000     C
    C   1.0     0.431076     0.241555     0.795405  Biso 1.000000     C
    C   1.0     0.431088     0.741607     0.795382  Biso 1.000000     C
    C   1.0     0.931077     0.241556     0.795404  Biso 1.000000     C
    C   1.0     0.931089     0.741607     0.795382  Biso 1.000000     C
    C   1.0     0.320711     0.273353     0.792834  Biso 1.000000     C
    C   1.0     0.320754     0.773476     0.792787  Biso 1.000000     C
    C   1.0     0.820714     0.273359     0.792831  Biso 1.000000     C
    C   1.0     0.820755     0.773476     0.792787  Biso 1.000000     C
    C   1.0     0.426850     0.228079     0.728829  Biso 1.000000     C
    C   1.0     0.426864     0.728136     0.728804  Biso 1.000000     C
    C   1.0     0.926851     0.228082     0.728828  Biso 1.000000     C
    C   1.0     0.926864     0.728136     0.728804  Biso 1.000000     C
    C   1.0     0.316544     0.259955     0.726228  Biso 1.000000     C
    C   1.0     0.316590     0.760084     0.726179  Biso 1.000000     C
    C   1.0     0.816548     0.259963     0.726225  Biso 1.000000     C
    C   1.0     0.816590     0.760085     0.726179  Biso 1.000000     C
    C   1.0     0.369541     0.237154     0.693753  Biso 1.000000     C
    C   1.0     0.369566     0.737236     0.693720  Biso 1.000000     C
    C   1.0     0.869543     0.237158     0.693751  Biso 1.000000     C
    C   1.0     0.869566     0.737236     0.693720  Biso 1.000000     C
    C   1.0     0.364847     0.221103     0.622583  Biso 1.000000     C
    C   1.0     0.364856     0.721143     0.622564  Biso 1.000000     C
    C   1.0     0.864848     0.221103     0.622582  Biso 1.000000     C
    C   1.0     0.864856     0.721143     0.622564  Biso 1.000000     C
    C   1.0     0.419061     0.417365     0.990107  Biso 1.000000     C
    C   1.0     0.419053     0.917371     0.990100  Biso 1.000000     C
    C   1.0     0.919061     0.417365     0.990107  Biso 1.000000     C
    C   1.0     0.919053     0.917371     0.990099  Biso 1.000000     C
    C   1.0     0.356783     0.447183     0.974018  Biso 1.000000     C
    C   1.0     0.356775     0.947187     0.974002  Biso 1.000000     C
    C   1.0     0.856783     0.447183     0.974019  Biso 1.000000     C
    C   1.0     0.856775     0.947187     0.974002  Biso 1.000000     C
    C   1.0     0.354065     0.457727     0.899369  Biso 1.000000     C
    C   1.0     0.354055     0.957715     0.899350  Biso 1.000000     C
    C   1.0     0.854065     0.457728     0.899370  Biso 1.000000     C
    C   1.0     0.854055     0.957714     0.899349  Biso 1.000000     C
    C   1.0     0.367234     0.220143     0.399166  Biso 1.000000     C
    C   1.0     0.367230     0.720149     0.399164  Biso 1.000000     C
    C   1.0     0.867234     0.220143     0.399166  Biso 1.000000     C
    C   1.0     0.867230     0.720148     0.399164  Biso 1.000000     C
    C   1.0     0.371965     0.235889     0.327914  Biso 1.000000     C
    C   1.0     0.371961     0.735894     0.327911  Biso 1.000000     C
    C   1.0     0.871965     0.235889     0.327913  Biso 1.000000     C
    C   1.0     0.871962     0.735894     0.327911  Biso 1.000000     C
    C   1.0     0.318859     0.258475     0.295418  Biso 1.000000     C
    C   1.0     0.318866     0.758503     0.295424  Biso 1.000000     C
    C   1.0     0.818859     0.258475     0.295418  Biso 1.000000     C
    C   1.0     0.818866     0.758504     0.295424  Biso 1.000000     C
    C   1.0     0.429305     0.226866     0.292849  Biso 1.000000     C
    C   1.0     0.429290     0.726846     0.292838  Biso 1.000000     C
    C   1.0     0.929305     0.226865     0.292849  Biso 1.000000     C
    C   1.0     0.929291     0.726847     0.292839  Biso 1.000000     C
    C   1.0     0.323091     0.271946     0.228852  Biso 1.000000     C
    C   1.0     0.323098     0.771974     0.228858  Biso 1.000000     C
    C   1.0     0.823091     0.271946     0.228852  Biso 1.000000     C
    C   1.0     0.823098     0.771974     0.228858  Biso 1.000000     C
    C   1.0     0.433475     0.240256     0.226253  Biso 1.000000     C
    C   1.0     0.433461     0.740237     0.226243  Biso 1.000000     C
    C   1.0     0.933475     0.240256     0.226253  Biso 1.000000     C
    C   1.0     0.933461     0.740236     0.226242  Biso 1.000000     C
    C   1.0     0.380439     0.262949     0.193777  Biso 1.000000     C
    C   1.0     0.380435     0.762954     0.193774  Biso 1.000000     C
    C   1.0     0.880439     0.262949     0.193777  Biso 1.000000     C
    C   1.0     0.880436     0.762954     0.193774  Biso 1.000000     C
    C   1.0     0.385135     0.278947     0.122601  Biso 1.000000     C
    C   1.0     0.385132     0.778952     0.122598  Biso 1.000000     C
    C   1.0     0.885135     0.278946     0.122601  Biso 1.000000     C
    C   1.0     0.885133     0.778954     0.122599  Biso 1.000000     C
    C   1.0     0.330960     0.082701     0.489718  Biso 1.000000     C
    C   1.0     0.330956     0.582708     0.489721  Biso 1.000000     C
    C   1.0     0.830960     0.082701     0.489718  Biso 1.000000     C
    C   1.0     0.830956     0.582708     0.489721  Biso 1.000000     C
    C   1.0     0.393196     0.053002     0.473014  Biso 1.000000     C
    C   1.0     0.393191     0.553007     0.473020  Biso 1.000000     C
    C   1.0     0.893196     0.053003     0.473014  Biso 1.000000     C
    C   1.0     0.893191     0.553007     0.473020  Biso 1.000000     C
    C   1.0     0.395329     0.042148     0.398411  Biso 1.000000     C
    C   1.0     0.395319     0.542142     0.398419  Biso 1.000000     C
    C   1.0     0.895330     0.042148     0.398410  Biso 1.000000     C
    C   1.0     0.895319     0.542142     0.398418  Biso 1.000000     C
    C   1.0     0.117011     0.029894     0.600881  Biso 1.000000     C
    C   1.0     0.117017     0.529874     0.600865  Biso 1.000000     C
    C   1.0     0.617011     0.029894     0.600881  Biso 1.000000     C
    C   1.0     0.617017     0.529873     0.600865  Biso 1.000000     C
    C   1.0     0.121770     0.014130     0.672128  Biso 1.000000     C
    C   1.0     0.121783     0.514075     0.672099  Biso 1.000000     C
    C   1.0     0.621770     0.014130     0.672128  Biso 1.000000     C
    C   1.0     0.621783     0.514075     0.672099  Biso 1.000000     C
    C   1.0     0.068714     0.491437     0.704685  Biso 1.000000     C
    C   1.0     0.068640     0.991638     0.704766  Biso 1.000000     C
    C   1.0     0.568714     0.491438     0.704685  Biso 1.000000     C
    C   1.0     0.568641     0.991638     0.704766  Biso 1.000000     C
    C   1.0     0.179227     0.023033     0.707032  Biso 1.000000     C
    C   1.0     0.179192     0.523084     0.707045  Biso 1.000000     C
    C   1.0     0.679228     0.023033     0.707032  Biso 1.000000     C
    C   1.0     0.679192     0.523084     0.707045  Biso 1.000000     C
    C   1.0     0.073072     0.477895     0.771219  Biso 1.000000     C
    C   1.0     0.073000     0.978108     0.771304  Biso 1.000000     C
    C   1.0     0.573072     0.477895     0.771219  Biso 1.000000     C
    C   1.0     0.573001     0.978108     0.771304  Biso 1.000000     C
    C   1.0     0.183531     0.009578     0.773596  Biso 1.000000     C
    C   1.0     0.183495     0.509613     0.773604  Biso 1.000000     C
    C   1.0     0.683531     0.009578     0.773596  Biso 1.000000     C
    C   1.0     0.683496     0.509612     0.773604  Biso 1.000000     C
    C   1.0     0.130497     0.486865     0.806170  Biso 1.000000     C
    C   1.0     0.130478     0.986965     0.806211  Biso 1.000000     C
    C   1.0     0.630498     0.486865     0.806170  Biso 1.000000     C
    C   1.0     0.630478     0.986964     0.806211  Biso 1.000000     C
    C   1.0     0.135248     0.470810     0.877319  Biso 1.000000     C
    C   1.0     0.135235     0.970902     0.877358  Biso 1.000000     C
    C   1.0     0.635248     0.470810     0.877319  Biso 1.000000     C
    C   1.0     0.635235     0.970901     0.877358  Biso 1.000000     C
    C   1.0     0.081012     0.167306     0.510311  Biso 1.000000     C
    C   1.0     0.081008     0.667316     0.510303  Biso 1.000000     C
    C   1.0     0.581012     0.167306     0.510311  Biso 1.000000     C
    C   1.0     0.581008     0.667316     0.510304  Biso 1.000000     C
    C   1.0     0.143296     0.197002     0.527002  Biso 1.000000     C
    C   1.0     0.143291     0.697024     0.526966  Biso 1.000000     C
    C   1.0     0.643296     0.197002     0.527002  Biso 1.000000     C
    C   1.0     0.643291     0.697024     0.526967  Biso 1.000000     C
    C   1.0     0.145489     0.207826     0.601609  Biso 1.000000     C
    C   1.0     0.145481     0.707906     0.601560  Biso 1.000000     C
    C   1.0     0.645489     0.207826     0.601609  Biso 1.000000     C
    C   1.0     0.645481     0.707905     0.601560  Biso 1.000000     C
    C   1.0     0.132705     0.470191     0.100833  Biso 1.000000     C
    C   1.0     0.132706     0.970190     0.100839  Biso 1.000000     C
    C   1.0     0.632706     0.470190     0.100833  Biso 1.000000     C
    C   1.0     0.632706     0.970190     0.100839  Biso 1.000000     C
    C   1.0     0.127983     0.485930     0.172099  Biso 1.000000     C
    C   1.0     0.127982     0.985929     0.172105  Biso 1.000000     C
    C   1.0     0.627983     0.485930     0.172099  Biso 1.000000     C
    C   1.0     0.627983     0.985929     0.172105  Biso 1.000000     C
    C   1.0     0.181114     0.008505     0.204644  Biso 1.000000     C
    C   1.0     0.181088     0.508566     0.204621  Biso 1.000000     C
    C   1.0     0.681115     0.008505     0.204644  Biso 1.000000     C
    C   1.0     0.681088     0.508566     0.204621  Biso 1.000000     C
    C   1.0     0.070636     0.476844     0.207133  Biso 1.000000     C
    C   1.0     0.070614     0.976889     0.207121  Biso 1.000000     C
    C   1.0     0.570636     0.476844     0.207133  Biso 1.000000     C
    C   1.0     0.570614     0.976889     0.207121  Biso 1.000000     C
    C   1.0     0.176864     0.021959     0.271225  Biso 1.000000     C
    C   1.0     0.176837     0.522023     0.271201  Biso 1.000000     C
    C   1.0     0.676864     0.021959     0.271225  Biso 1.000000     C
    C   1.0     0.676837     0.522023     0.271201  Biso 1.000000     C
    C   1.0     0.066444     0.490223     0.273741  Biso 1.000000     C
    C   1.0     0.066423     0.990265     0.273731  Biso 1.000000     C
    C   1.0     0.566445     0.490222     0.273742  Biso 1.000000     C
    C   1.0     0.566423     0.990265     0.273731  Biso 1.000000     C
    C   1.0     0.119484     0.012950     0.306252  Biso 1.000000     C
    C   1.0     0.119479     0.512965     0.306247  Biso 1.000000     C
    C   1.0     0.619484     0.012950     0.306252  Biso 1.000000     C
    C   1.0     0.619480     0.512965     0.306247  Biso 1.000000     C
    C   1.0     0.114797     0.028947     0.377436  Biso 1.000000     C
    C   1.0     0.114794     0.528955     0.377433  Biso 1.000000     C
    C   1.0     0.614797     0.028947     0.377436  Biso 1.000000     C
    C   1.0     0.614794     0.528956     0.377433  Biso 1.000000     C
    C   1.0     0.169006     0.332689     0.010266  Biso 1.000000     C
    C   1.0     0.169003     0.832710     0.010280  Biso 1.000000     C
    C   1.0     0.669006     0.332689     0.010266  Biso 1.000000     C
    C   1.0     0.669003     0.832710     0.010280  Biso 1.000000     C
    C   1.0     0.106709     0.302979     0.026862  Biso 1.000000     C
    C   1.0     0.106703     0.803023     0.026933  Biso 1.000000     C
    C   1.0     0.606710     0.302979     0.026862  Biso 1.000000     C
    C   1.0     0.606704     0.803023     0.026933  Biso 1.000000     C
    C   1.0     0.104394     0.292171     0.101457  Biso 1.000000     C
    C   1.0     0.104385     0.792322     0.101553  Biso 1.000000     C
    C   1.0     0.604394     0.292171     0.101457  Biso 1.000000     C
    C   1.0     0.604385     0.792321     0.101553  Biso 1.000000     C
    O   1.0     0.333149     0.301116     0.925151  Biso 1.000000     O
    O   1.0     0.333147     0.801129     0.925147  Biso 1.000000     O
    O   1.0     0.833149     0.301116     0.925152  Biso 1.000000     O
    O   1.0     0.833148     0.801129     0.925147  Biso 1.000000     O
    O   1.0     0.436768     0.271157     0.927907  Biso 1.000000     O
    O   1.0     0.436769     0.771176     0.927898  Biso 1.000000     O
    O   1.0     0.936768     0.271157     0.927907  Biso 1.000000     O
    O   1.0     0.936769     0.771176     0.927898  Biso 1.000000     O
    O   1.0     0.311095     0.231027     0.593402  Biso 1.000000     O
    O   1.0     0.311103     0.731060     0.593381  Biso 1.000000     O
    O   1.0     0.811096     0.231030     0.593400  Biso 1.000000     O
    O   1.0     0.811103     0.731060     0.593381  Biso 1.000000     O
    O   1.0     0.413728     0.198844     0.597081  Biso 1.000000     O
    O   1.0     0.413728     0.698861     0.597076  Biso 1.000000     O
    O   1.0     0.913729     0.198845     0.597080  Biso 1.000000     O
    O   1.0     0.913728     0.698861     0.597076  Biso 1.000000     O
    O   1.0     0.412036     0.370448     0.014233  Biso 1.000000     O
    O   1.0     0.412028     0.870456     0.014231  Biso 1.000000     O
    O   1.0     0.912037     0.370448     0.014233  Biso 1.000000     O
    O   1.0     0.912028     0.870456     0.014231  Biso 1.000000     O
    O   1.0     0.472009     0.439608     0.977921  Biso 1.000000     O
    O   1.0     0.472002     0.939615     0.977915  Biso 1.000000     O
    O   1.0     0.972010     0.439608     0.977921  Biso 1.000000     O
    O   1.0     0.972002     0.939615     0.977915  Biso 1.000000     O
    O   1.0     0.302314     0.417772     0.996791  Biso 1.000000     O
    O   1.0     0.302304     0.917782     0.996782  Biso 1.000000     O
    O   1.0     0.802314     0.417772     0.996791  Biso 1.000000     O
    O   1.0     0.802304     0.917782     0.996782  Biso 1.000000     O
    O   1.0     0.416808     0.199019     0.425113  Biso 1.000000     O
    O   1.0     0.416803     0.699024     0.425112  Biso 1.000000     O
    O   1.0     0.916808     0.199018     0.425113  Biso 1.000000     O
    O   1.0     0.916804     0.699025     0.425112  Biso 1.000000     O
    O   1.0     0.313128     0.228830     0.427889  Biso 1.000000     O
    O   1.0     0.313124     0.728836     0.427886  Biso 1.000000     O
    O   1.0     0.813128     0.228830     0.427889  Biso 1.000000     O
    O   1.0     0.813125     0.728837     0.427887  Biso 1.000000     O
    O   1.0     0.438902     0.269016     0.093408  Biso 1.000000     O
    O   1.0     0.438899     0.769022     0.093405  Biso 1.000000     O
    O   1.0     0.938903     0.269017     0.093408  Biso 1.000000     O
    O   1.0     0.938899     0.769022     0.093405  Biso 1.000000     O
    O   1.0     0.336243     0.301146     0.097096  Biso 1.000000     O
    O   1.0     0.336241     0.801154     0.097095  Biso 1.000000     O
    O   1.0     0.836244     0.301146     0.097096  Biso 1.000000     O
    O   1.0     0.836241     0.801153     0.097094  Biso 1.000000     O
    O   1.0     0.338019     0.129531     0.514165  Biso 1.000000     O
    O   1.0     0.338016     0.629538     0.514168  Biso 1.000000     O
    O   1.0     0.838020     0.129531     0.514166  Biso 1.000000     O
    O   1.0     0.838016     0.629538     0.514168  Biso 1.000000     O
    O   1.0     0.277981     0.060400     0.477823  Biso 1.000000     O
    O   1.0     0.277977     0.560408     0.477824  Biso 1.000000     O
    O   1.0     0.777982     0.060400     0.477823  Biso 1.000000     O
    O   1.0     0.777977     0.560408     0.477824  Biso 1.000000     O
    O   1.0     0.447785     0.082645     0.494957  Biso 1.000000     O
    O   1.0     0.447782     0.582653     0.494953  Biso 1.000000     O
    O   1.0     0.947785     0.082645     0.494957  Biso 1.000000     O
    O   1.0     0.947782     0.582653     0.494953  Biso 1.000000     O
    O   1.0     0.166648     0.050955     0.574884  Biso 1.000000     O
    O   1.0     0.166645     0.550961     0.574882  Biso 1.000000     O
    O   1.0     0.666649     0.050955     0.574883  Biso 1.000000     O
    O   1.0     0.666646     0.550962     0.574883  Biso 1.000000     O
    O   1.0     0.062842     0.021289     0.572234  Biso 1.000000     O
    O   1.0     0.062851     0.521269     0.572214  Biso 1.000000     O
    O   1.0     0.562843     0.021288     0.572234  Biso 1.000000     O
    O   1.0     0.562851     0.521269     0.572214  Biso 1.000000     O
    O   1.0     0.189145     0.480509     0.906373  Biso 1.000000     O
    O   1.0     0.189105     0.980658     0.906440  Biso 1.000000     O
    O   1.0     0.689146     0.480508     0.906372  Biso 1.000000     O
    O   1.0     0.689105     0.980658     0.906440  Biso 1.000000     O
    O   1.0     0.086254     0.448787     0.902940  Biso 1.000000     O
    O   1.0     0.086270     0.948808     0.902946  Biso 1.000000     O
    O   1.0     0.586255     0.448787     0.902940  Biso 1.000000     O
    O   1.0     0.586270     0.948809     0.902946  Biso 1.000000     O
    O   1.0     0.088032     0.120483     0.485850  Biso 1.000000     O
    O   1.0     0.088029     0.620489     0.485854  Biso 1.000000     O
    O   1.0     0.588032     0.120483     0.485850  Biso 1.000000     O
    O   1.0     0.588029     0.620489     0.485854  Biso 1.000000     O
    O   1.0     0.028056     0.189595     0.522218  Biso 1.000000     O
    O   1.0     0.028051     0.689603     0.522214  Biso 1.000000     O
    O   1.0     0.528056     0.189595     0.522218  Biso 1.000000     O
    O   1.0     0.528051     0.689603     0.522214  Biso 1.000000     O
    O   1.0     0.197838     0.167366     0.505006  Biso 1.000000     O
    O   1.0     0.197835     0.667373     0.505008  Biso 1.000000     O
    O   1.0     0.697838     0.167366     0.505006  Biso 1.000000     O
    O   1.0     0.697836     0.667373     0.505008  Biso 1.000000     O
    O   1.0     0.083134     0.448985     0.074891  Biso 1.000000     O
    O   1.0     0.083130     0.948995     0.074891  Biso 1.000000     O
    O   1.0     0.583134     0.448986     0.074890  Biso 1.000000     O
    O   1.0     0.583130     0.948995     0.074891  Biso 1.000000     O
    O   1.0     0.186768     0.478957     0.072082  Biso 1.000000     O
    O   1.0     0.186768     0.978958     0.072089  Biso 1.000000     O
    O   1.0     0.686768     0.478958     0.072082  Biso 1.000000     O
    O   1.0     0.686768     0.978958     0.072089  Biso 1.000000     O
    O   1.0     0.061042     0.018980     0.406642  Biso 1.000000     O
    O   1.0     0.061037     0.518991     0.406635  Biso 1.000000     O
    O   1.0     0.561043     0.018980     0.406642  Biso 1.000000     O
    O   1.0     0.561038     0.518990     0.406636  Biso 1.000000     O
    O   1.0     0.163714     0.051178     0.402948  Biso 1.000000     O
    O   1.0     0.163709     0.551190     0.402945  Biso 1.000000     O
    O   1.0     0.663714     0.051178     0.402948  Biso 1.000000     O
    O   1.0     0.663709     0.551190     0.402945  Biso 1.000000     O
    O   1.0     0.162007     0.379503     0.985832  Biso 1.000000     O
    O   1.0     0.162010     0.879515     0.985816  Biso 1.000000     O
    O   1.0     0.662008     0.379503     0.985832  Biso 1.000000     O
    O   1.0     0.662010     0.879515     0.985816  Biso 1.000000     O
    O   1.0     0.221953     0.310411     0.022199  Biso 1.000000     O
    O   1.0     0.221947     0.810423     0.022205  Biso 1.000000     O
    O   1.0     0.721954     0.310411     0.022199  Biso 1.000000     O
    O   1.0     0.721947     0.810423     0.022205  Biso 1.000000     O
    O   1.0     0.052184     0.332584     0.004817  Biso 1.000000     O
    O   1.0     0.052180     0.832601     0.004825  Biso 1.000000     O
    O   1.0     0.552184     0.332584     0.004817  Biso 1.000000     O
    O   1.0     0.552180     0.832601     0.004825  Biso 1.000000     O
   Zn   1.0     0.466286     0.303434     0.011195  Biso 1.000000    Zn
   Zn   1.0     0.466284     0.803443     0.011194  Biso 1.000000    Zn
   Zn   1.0     0.966286     0.303434     0.011194  Biso 1.000000    Zn
   Zn   1.0     0.966284     0.803443     0.011194  Biso 1.000000    Zn
   Zn   1.0     0.314149     0.338250     0.011236  Biso 1.000000    Zn
   Zn   1.0     0.314143     0.838257     0.011235  Biso 1.000000    Zn
   Zn   1.0     0.814149     0.338250     0.011236  Biso 1.000000    Zn
   Zn   1.0     0.814143     0.838257     0.011235  Biso 1.000000    Zn
   Zn   1.0     0.283724     0.196560     0.511191  Biso 1.000000    Zn
   Zn   1.0     0.283721     0.696567     0.511191  Biso 1.000000    Zn
   Zn   1.0     0.783724     0.196560     0.511191  Biso 1.000000    Zn
   Zn   1.0     0.783721     0.696567     0.511191  Biso 1.000000    Zn
   Zn   1.0     0.435837     0.161843     0.511113  Biso 1.000000    Zn
   Zn   1.0     0.435833     0.661850     0.511114  Biso 1.000000    Zn
   Zn   1.0     0.935837     0.161843     0.511113  Biso 1.000000    Zn
   Zn   1.0     0.935833     0.661850     0.511114  Biso 1.000000    Zn
   Zn   1.0     0.033653     0.053456     0.488819  Biso 1.000000    Zn
   Zn   1.0     0.033650     0.553462     0.488818  Biso 1.000000    Zn
   Zn   1.0     0.533653     0.053456     0.488819  Biso 1.000000    Zn
   Zn   1.0     0.533650     0.553462     0.488818  Biso 1.000000    Zn
   Zn   1.0     0.185814     0.088161     0.488900  Biso 1.000000    Zn
   Zn   1.0     0.185810     0.588169     0.488901  Biso 1.000000    Zn
   Zn   1.0     0.685815     0.088161     0.488900  Biso 1.000000    Zn
   Zn   1.0     0.685810     0.588169     0.488901  Biso 1.000000    Zn
   Zn   1.0     0.216346     0.446544     0.988892  Biso 1.000000    Zn
   Zn   1.0     0.216339     0.946563     0.988883  Biso 1.000000    Zn
   Zn   1.0     0.716346     0.446544     0.988893  Biso 1.000000    Zn
   Zn   1.0     0.716339     0.946563     0.988883  Biso 1.000000    Zn
   Zn   1.0     0.064168     0.411810     0.988873  Biso 1.000000    Zn
   Zn   1.0     0.064164     0.911824     0.988872  Biso 1.000000    Zn
   Zn   1.0     0.564168     0.411810     0.988873  Biso 1.000000    Zn
   Zn   1.0     0.564165     0.911824     0.988872  Biso 1.000000    Zn
