#======================================================================

# CRYSTAL DATA

#----------------------------------------------------------------------

data_VESTA_phase_1


_pd_phase_name                         MOF
_cell_length_a                         15.32600
_cell_length_b                         14.36700
_cell_length_c                         21.41700
_cell_angle_alpha                      90.55800
_cell_angle_beta                       90.46200
_cell_angle_gamma                      91.31300
_symmetry_space_group_name_H-M         "P 1"
_symmetry_Int_Tables_number            1

loop_
_symmetry_equiv_pos_as_xyz
   "x, y, z"

loop_
   _atom_site_label
   _atom_site_occupancy
   _atom_site_fract_x
   _atom_site_fract_y
   _atom_site_fract_z
   _atom_site_adp_type
   _atom_site_B_iso_or_equiv
   _atom_site_type_symbol
    H   1.0     0.423053     0.151467    -0.025000  Biso 1.000000     H
    H   1.0     0.920419     0.131951    -0.025308  Biso 1.000000     H
    H   1.0     0.425941     0.000000     0.159079  Biso 1.000000     H
    H   1.0     0.927820     0.000000     0.161762  Biso 1.000000     H
    H   1.0     0.399107     0.855587     0.000000  Biso 1.000000     H
    H   1.0     0.897945     0.827890     0.000000  Biso 1.000000     H
    H   1.0     0.397803    -0.058744     0.849202  Biso 1.000000     H
    H   1.0     0.896049    -0.040574     0.851659  Biso 1.000000     H
    H   1.0     0.055362     0.645410     0.523886  Biso 1.000000     H
    H   1.0     0.555969     0.645376     0.522642  Biso 1.000000     H
    H   1.0     0.053183     0.574394     0.335759  Biso 1.000000     H
    H   1.0     0.552250     0.571675     0.334956  Biso 1.000000     H
    H   1.0     0.086615     0.355320     0.476605  Biso 1.000000     H
    H   1.0     0.587862     0.351810     0.477759  Biso 1.000000     H
    H   1.0     0.096969     0.444359     0.661690  Biso 1.000000     H
    H   1.0     0.596054     0.446406     0.661672  Biso 1.000000     H
    H   1.0     0.063934     0.827354     0.000000  Biso 1.000000     H
    H   1.0     0.563803     0.850800     0.000000  Biso 1.000000     H
    H   1.0     0.062108    -0.036817     0.851612  Biso 1.000000     H
    H   1.0     0.563638    -0.058156     0.849027  Biso 1.000000     H
    H   1.0     0.085741     0.134296    -0.028050  Biso 1.000000     H
    H   1.0     0.588616     0.152605    -0.026076  Biso 1.000000     H
    H   1.0     0.093581     0.000000     0.159985  Biso 1.000000     H
    H   1.0     0.591926     0.000000     0.158960  Biso 1.000000     H
    H   1.0     0.422294     0.350442     0.479864  Biso 1.000000     H
    H   1.0     0.921163     0.351862     0.480170  Biso 1.000000     H
    H   1.0     0.430308     0.450568     0.662508  Biso 1.000000     H
    H   1.0     0.931195     0.447090     0.663951  Biso 1.000000     H
    H   1.0     0.390821     0.629413     0.525661  Biso 1.000000     H
    H   1.0     0.890188     0.628296     0.526313  Biso 1.000000     H
    H   1.0     0.386290     0.563183     0.336074  Biso 1.000000     H
    H   1.0     0.887203     0.564833     0.336314  Biso 1.000000     H
    H   1.0     0.295169     0.199863     0.400109  Biso 1.000000     H
    H   1.0     0.796829     0.197248     0.402681  Biso 1.000000     H
    H   1.0     0.213589     0.451702     0.311299  Biso 1.000000     H
    H   1.0     0.716360     0.448604     0.312638  Biso 1.000000     H
    H   1.0     0.226973     0.374907     0.207340  Biso 1.000000     H
    H   1.0     0.730316     0.371062     0.209095  Biso 1.000000     H
    H   1.0     0.181239     0.806025     0.603393  Biso 1.000000     H
    H   1.0     0.679564     0.805762     0.601709  Biso 1.000000     H
    H   1.0     0.272882     0.555745     0.689005  Biso 1.000000     H
    H   1.0     0.770759     0.556223     0.688565  Biso 1.000000     H
    H   1.0     0.266412     0.632388     0.793329  Biso 1.000000     H
    H   1.0     0.763336     0.633640     0.792577  Biso 1.000000     H
    H   1.0     0.244063     0.684543     0.100936  Biso 1.000000     H
    H   1.0     0.751186     0.681010     0.101132  Biso 1.000000     H
    H   1.0     0.247637     0.955998     0.188819  Biso 1.000000     H
    H   1.0     0.741362     0.953622     0.186377  Biso 1.000000     H
    H   1.0     0.244803     0.881037     0.293305  Biso 1.000000     H
    H   1.0     0.741326     0.880877     0.291581  Biso 1.000000     H
    H   1.0     0.298909     0.308126     0.900066  Biso 1.000000     H
    H   1.0     0.800817     0.306676     0.901692  Biso 1.000000     H
    H   1.0     0.214856     0.052002     0.809519  Biso 1.000000     H
    H   1.0     0.713147     0.051778     0.811306  Biso 1.000000     H
    H   1.0     0.223655     0.129749     0.706149  Biso 1.000000     H
    H   1.0     0.720830     0.129890     0.707891  Biso 1.000000     H
    C   1.0     0.461300     0.131163     0.015550  Biso 1.000000     C
    C   1.0     0.959499     0.114959     0.015555  Biso 1.000000     C
    C   1.0     0.462412     0.082421     0.117535  Biso 1.000000     C
    C   1.0     0.963126     0.074584     0.119154  Biso 1.000000     C
    C   1.0     0.435914     0.874467     0.992503  Biso 1.000000     C
    C   1.0     0.935077     0.858908     0.985390  Biso 1.000000     C
    C   1.0     0.435700     0.923406     0.890531  Biso 1.000000     C
    C   1.0     0.934200     0.932563     0.890426  Biso 1.000000     C
    C   1.0     0.017140     0.625680     0.482509  Biso 1.000000     C
    C   1.0     0.517427     0.625224     0.481502  Biso 1.000000     C
    C   1.0     0.015875     0.586894     0.378058  Biso 1.000000     C
    C   1.0     0.515330     0.584980     0.377323  Biso 1.000000     C
    C   1.0     0.051749     0.374721     0.518633  Biso 1.000000     C
    C   1.0     0.552489     0.372955     0.519177  Biso 1.000000     C
    C   1.0     0.057110     0.425872     0.620807  Biso 1.000000     C
    C   1.0     0.556689     0.427034     0.620712  Biso 1.000000     C
    C   1.0     0.025898     0.858848     0.984750  Biso 1.000000     C
    C   1.0     0.526657     0.872733     0.992086  Biso 1.000000     C
    C   1.0     0.025271     0.933708     0.890276  Biso 1.000000     C
    C   1.0     0.526740     0.922863     0.890475  Biso 1.000000     C
    C   1.0     0.050253     0.118211     0.014455  Biso 1.000000     C
    C   1.0     0.552113     0.133092     0.015360  Biso 1.000000     C
    C   1.0     0.054216     0.079136     0.118338  Biso 1.000000     C
    C   1.0     0.553480     0.085409     0.117616  Biso 1.000000     C
    C   1.0     0.461776     0.373546     0.519901  Biso 1.000000     C
    C   1.0     0.961039     0.374382     0.520138  Biso 1.000000     C
    C   1.0     0.465670     0.428839     0.621077  Biso 1.000000     C
    C   1.0     0.966064     0.426834     0.621948  Biso 1.000000     C
    C   1.0     0.426824     0.618401     0.482749  Biso 1.000000     C
    C   1.0     0.926555     0.618199     0.483454  Biso 1.000000     C
    C   1.0     0.424239     0.579808     0.378226  Biso 1.000000     C
    C   1.0     0.924813     0.581108     0.378669  Biso 1.000000     C
    C   1.0     0.267048     0.244110     0.244291  Biso 1.000000     C
    C   1.0     0.769851     0.240315     0.246628  Biso 1.000000     C
    C   1.0     0.287090     0.197027     0.299537  Biso 1.000000     C
    C   1.0     0.789558     0.193666     0.302119  Biso 1.000000     C
    C   1.0     0.280055     0.238432     0.358056  Biso 1.000000     C
    C   1.0     0.781988     0.235526     0.360461  Biso 1.000000     C
    C   1.0     0.252737     0.330710     0.362487  Biso 1.000000     C
    C   1.0     0.754670     0.327874     0.364535  Biso 1.000000     C
    C   1.0     0.233931     0.379720     0.307938  Biso 1.000000     C
    C   1.0     0.736528     0.376510     0.309698  Biso 1.000000     C
    C   1.0     0.241590     0.336786     0.249682  Biso 1.000000     C
    C   1.0     0.744516     0.333089     0.251586  Biso 1.000000     C
    C   1.0     0.263949     0.197570     0.181224  Biso 1.000000     C
    C   1.0     0.766538     0.192871     0.183811  Biso 1.000000     C
    C   1.0     0.242322     0.375445     0.425557  Biso 1.000000     C
    C   1.0     0.743875     0.372815     0.427558  Biso 1.000000     C
    C   1.0     0.220453     0.762160     0.758099  Biso 1.000000     C
    C   1.0     0.717498     0.763055     0.756723  Biso 1.000000     C
    C   1.0     0.195685     0.808648     0.703608  Biso 1.000000     C
    C   1.0     0.693108     0.809103     0.701977  Biso 1.000000     C
    C   1.0     0.199808     0.767561     0.644759  Biso 1.000000     C
    C   1.0     0.697825     0.767609     0.643278  Biso 1.000000     C
    C   1.0     0.228383     0.675939     0.639177  Biso 1.000000     C
    C   1.0     0.726583     0.676024     0.638139  Biso 1.000000     C
    C   1.0     0.251837     0.627390     0.693068  Biso 1.000000     C
    C   1.0     0.749591     0.627859     0.692285  Biso 1.000000     C
    C   1.0     0.247615     0.670123     0.751636  Biso 1.000000     C
    C   1.0     0.744885     0.671026     0.750660  Biso 1.000000     C
    C   1.0     0.225787     0.808681     0.821295  Biso 1.000000     C
    C   1.0     0.722241     0.809510     0.819971  Biso 1.000000     C
    C   1.0     0.235758     0.631568     0.575741  Biso 1.000000     C
    C   1.0     0.734590     0.631134     0.574951  Biso 1.000000     C
    C   1.0     0.245650     0.741556     0.256824  Biso 1.000000     C
    C   1.0     0.746838     0.740903     0.256480  Biso 1.000000     C
    C   1.0     0.248186     0.688238     0.201628  Biso 1.000000     C
    C   1.0     0.751985     0.686692     0.201820  Biso 1.000000     C
    C   1.0     0.244795     0.727883     0.142910  Biso 1.000000     C
    C   1.0     0.749383     0.725018     0.142722  Biso 1.000000     C
    C   1.0     0.244082     0.825113     0.138017  Biso 1.000000     C
    C   1.0     0.744802     0.821876     0.136746  Biso 1.000000     C
    C   1.0     0.246292     0.880394     0.192346  Biso 1.000000     C
    C   1.0     0.743422     0.878210     0.190559  Biso 1.000000     C
    C   1.0     0.245409     0.838614     0.250894  Biso 1.000000     C
    C   1.0     0.743727     0.837705     0.249555  Biso 1.000000     C
    C   1.0     0.237007     0.698111     0.320107  Biso 1.000000     C
    C   1.0     0.738224     0.698211     0.320046  Biso 1.000000     C
    C   1.0     0.242316     0.867138     0.074123  Biso 1.000000     C
    C   1.0     0.740770     0.861558     0.072219  Biso 1.000000     C
    C   1.0     0.267015     0.261943     0.744026  Biso 1.000000     C
    C   1.0     0.765836     0.261460     0.745790  Biso 1.000000     C
    C   1.0     0.289161     0.309940     0.799571  Biso 1.000000     C
    C   1.0     0.789215     0.309028     0.801224  Biso 1.000000     C
    C   1.0     0.282665     0.268705     0.857745  Biso 1.000000     C
    C   1.0     0.783450     0.267683     0.859399  Biso 1.000000     C
    C   1.0     0.254923     0.175277     0.861522  Biso 1.000000     C
    C   1.0     0.755079     0.174479     0.863131  Biso 1.000000     C
    C   1.0     0.234697     0.125076     0.806632  Biso 1.000000     C
    C   1.0     0.733510     0.124677     0.808308  Biso 1.000000     C
    C   1.0     0.240653     0.168245     0.748762  Biso 1.000000     C
    C   1.0     0.738759     0.167991     0.750486  Biso 1.000000     C
    C   1.0     0.263624     0.308342     0.681468  Biso 1.000000     C
    C   1.0     0.762343     0.308183     0.683405  Biso 1.000000     C
    C   1.0     0.245562     0.130665     0.924324  Biso 1.000000     C
    C   1.0     0.746565     0.128875     0.925689  Biso 1.000000     C
    N   1.0     0.416411     0.105210     0.066420  Biso 1.000000     N
    N   1.0     0.915777     0.092496     0.067676  Biso 1.000000     N
    N   1.0     0.390293     0.899713     0.941756  Biso 1.000000     N
    N   1.0     0.889228     0.896188     0.938446  Biso 1.000000     N
    N   1.0     0.061892     0.609430     0.429990  Biso 1.000000     N
    N   1.0     0.561820     0.607833     0.428990  Biso 1.000000     N
    N   1.0     0.099889     0.400596     0.568886  Biso 1.000000     N
    N   1.0     0.600022     0.399854     0.569489  Biso 1.000000     N
    N   1.0     0.070959     0.897254     0.937600  Biso 1.000000     N
    N   1.0     0.572066     0.897416     0.941268  Biso 1.000000     N
    N   1.0     0.097771     0.100484     0.065848  Biso 1.000000     N
    N   1.0     0.598256     0.110296     0.066369  Biso 1.000000     N
    N   1.0     0.418350     0.402283     0.570579  Biso 1.000000     N
    N   1.0     0.918144     0.401258     0.571519  Biso 1.000000     N
    N   1.0     0.380019     0.595754     0.431202  Biso 1.000000     N
    N   1.0     0.880223     0.596052     0.431604  Biso 1.000000     N
    N   1.0     0.319526     0.101166     0.297500  Biso 1.000000     N
    N   1.0     0.822686     0.098069     0.300252  Biso 1.000000     N
    N   1.0     0.160733     0.903293     0.707138  Biso 1.000000     N
    N   1.0     0.657544     0.903495     0.704954  Biso 1.000000     N
    N   1.0     0.259578     0.586507     0.203236  Biso 1.000000     N
    N   1.0     0.764464     0.585231     0.204391  Biso 1.000000     N
    N   1.0     0.324231     0.406496     0.798280  Biso 1.000000     N
    N   1.0     0.825378     0.405100     0.799606  Biso 1.000000     N
    O   1.0     0.240695     0.111448     0.178351  Biso 1.000000     O
    O   1.0     0.737639     0.108741     0.180979  Biso 1.000000     O
    O   1.0     0.281103     0.245887     0.133477  Biso 1.000000     O
    O   1.0     0.788869     0.239180     0.136182  Biso 1.000000     O
    O   1.0     0.384170     0.086278     0.264446  Biso 1.000000     O
    O   1.0     0.884340     0.082528     0.264443  Biso 1.000000     O
    O   1.0     0.188916     0.961213     0.669251  Biso 1.000000     O
    O   1.0     0.685326     0.961205     0.666802  Biso 1.000000     O
    O   1.0     0.201911     0.536615     0.178245  Biso 1.000000     O
    O   1.0     0.707847     0.534502     0.178912  Biso 1.000000     O
    O   1.0     0.288654     0.464808     0.832031  Biso 1.000000     O
    O   1.0     0.789108     0.464723     0.831854  Biso 1.000000     O
    O   1.0     0.254889     0.892641     0.824467  Biso 1.000000     O
    O   1.0     0.751388     0.893290     0.823727  Biso 1.000000     O
    O   1.0     0.203942     0.761390     0.868574  Biso 1.000000     O
    O   1.0     0.699842     0.761584     0.866882  Biso 1.000000     O
    O   1.0     0.103509     0.917908     0.746694  Biso 1.000000     O
    O   1.0     0.599969     0.918070     0.744281  Biso 1.000000     O
    O   1.0     0.281759     0.042832     0.330683  Biso 1.000000     O
    O   1.0     0.788748     0.040474     0.335926  Biso 1.000000     O
    O   1.0     0.244555     0.394625     0.680074  Biso 1.000000     O
    O   1.0     0.745200     0.394948     0.682281  Biso 1.000000     O
    O   1.0     0.276865     0.259768     0.632917  Biso 1.000000     O
    O   1.0     0.773885     0.259310     0.634694  Biso 1.000000     O
    O   1.0     0.389314     0.421760     0.765299  Biso 1.000000     O
    O   1.0     0.892095     0.418372     0.767918  Biso 1.000000     O
    O   1.0     0.208202     0.613658     0.322411  Biso 1.000000     O
    O   1.0     0.710806     0.613162     0.322493  Biso 1.000000     O
    O   1.0     0.256358     0.746205     0.368284  Biso 1.000000     O
    O   1.0     0.756230     0.746977     0.368060  Biso 1.000000     O
    O   1.0     0.328638     0.558700     0.226552  Biso 1.000000     O
    O   1.0     0.833086     0.558440     0.228902  Biso 1.000000     O
    O   1.0     0.200557     0.450420     0.429779  Biso 1.000000     O
    O   1.0     0.703608     0.448748     0.431781  Biso 1.000000     O
    O   1.0     0.274176     0.332026     0.472157  Biso 1.000000     O
    O   1.0     0.773915     0.328428     0.474375  Biso 1.000000     O
    O   1.0     0.276007     0.555604     0.570565  Biso 1.000000     O
    O   1.0     0.774265     0.554768     0.570389  Biso 1.000000     O
    O   1.0     0.203656     0.675595     0.529556  Biso 1.000000     O
    O   1.0     0.703730     0.675267     0.528338  Biso 1.000000     O
    O   1.0     0.266456     0.951414     0.066796  Biso 1.000000     O
    O   1.0     0.740756     0.949003     0.064034  Biso 1.000000     O
    O   1.0     0.219007     0.813028     0.028894  Biso 1.000000     O
    O   1.0     0.736745     0.803174     0.026750  Biso 1.000000     O
    O   1.0     0.207823     0.051380     0.927897  Biso 1.000000     O
    O   1.0     0.710286     0.049010     0.928443  Biso 1.000000     O
    O   1.0     0.274113     0.178111     0.971469  Biso 1.000000     O
    O   1.0     0.774624     0.175966     0.973260  Biso 1.000000     O
   Cd   1.0     0.256608     0.113256     0.066611  Biso 1.000000    Cd
   Cd   1.0     0.756568     0.110681     0.068352  Biso 1.000000    Cd
   Cd   1.0     0.230837     0.891276     0.936811  Biso 1.000000    Cd
   Cd   1.0     0.730212     0.888188     0.936875  Biso 1.000000    Cd
   Cd   1.0     0.221592     0.612008     0.433039  Biso 1.000000    Cd
   Cd   1.0     0.722020     0.610629     0.432442  Biso 1.000000    Cd
   Cd   1.0     0.257983     0.394324     0.568587  Biso 1.000000    Cd
   Cd   1.0     0.757756     0.393161     0.570174  Biso 1.000000    Cd
