#======================================================================

# CRYSTAL DATA

#----------------------------------------------------------------------

data_VESTA_phase_1


_pd_phase_name                         MOF
_cell_length_a                         15.13500
_cell_length_b                         14.35200
_cell_length_c                         21.10600
_cell_angle_alpha                      89.95200
_cell_angle_beta                       90.00300
_cell_angle_gamma                      90.05300
_symmetry_space_group_name_H-M         "P 1"
_symmetry_Int_Tables_number            1

loop_
_symmetry_equiv_pos_as_xyz
   "x, y, z"

loop_
   _atom_site_label
   _atom_site_occupancy
   _atom_site_fract_x
   _atom_site_fract_y
   _atom_site_fract_z
   _atom_site_adp_type
   _atom_site_B_iso_or_equiv
   _atom_site_type_symbol
    H   1.0     0.084076     0.470701     0.386090  Biso 1.000000     H
    H   1.0     0.584060     0.470719     0.386074  Biso 1.000000     H
    H   1.0     0.083872     0.720278     0.485475  Biso 1.000000     H
    H   1.0     0.583863     0.720266     0.485492  Biso 1.000000     H
    H   1.0     0.084420     0.529653     0.614187  Biso 1.000000     H
    H   1.0     0.584414     0.529611     0.614189  Biso 1.000000     H
    H   1.0     0.085091     0.279861     0.514964  Biso 1.000000     H
    H   1.0     0.585067     0.279861     0.514918  Biso 1.000000     H
    H   1.0     0.415922     0.968704     0.113729  Biso 1.000000     H
    H   1.0     0.915923     0.968887     0.113677  Biso 1.000000     H
    H   1.0     0.415329     0.220178     0.016198  Biso 1.000000     H
    H   1.0     0.915339     0.220312     0.016080  Biso 1.000000     H
    H   1.0     0.414975     0.030806     0.886532  Biso 1.000000     H
    H   1.0     0.914979     0.030845     0.886549  Biso 1.000000     H
    H   1.0     0.415497     0.779517     0.984236  Biso 1.000000     H
    H   1.0     0.915451     0.779509     0.984193  Biso 1.000000     H
    H   1.0     0.415916     0.529291     0.613941  Biso 1.000000     H
    H   1.0     0.915891     0.529320     0.613938  Biso 1.000000     H
    H   1.0     0.416107     0.279747     0.514519  Biso 1.000000     H
    H   1.0     0.916101     0.279735     0.514563  Biso 1.000000     H
    H   1.0     0.415562     0.470393     0.385829  Biso 1.000000     H
    H   1.0     0.915548     0.470377     0.385836  Biso 1.000000     H
    H   1.0     0.414904     0.720149     0.485092  Biso 1.000000     H
    H   1.0     0.914882     0.720161     0.485067  Biso 1.000000     H
    H   1.0     0.083465     0.031292     0.886241  Biso 1.000000     H
    H   1.0     0.583416     0.031292     0.886219  Biso 1.000000     H
    H   1.0     0.084461     0.779900     0.983842  Biso 1.000000     H
    H   1.0     0.584477     0.779942     0.983875  Biso 1.000000     H
    H   1.0     0.084399     0.969206     0.113530  Biso 1.000000     H
    H   1.0     0.584374     0.969038     0.113602  Biso 1.000000     H
    H   1.0     0.084333     0.220407     0.015744  Biso 1.000000     H
    H   1.0     0.584327     0.220289     0.015886  Biso 1.000000     H
    H   1.0     0.248723     0.662974     0.092693  Biso 1.000000     H
    H   1.0     0.748741     0.662972     0.092678  Biso 1.000000     H
    H   1.0     0.249706     0.934609     0.180104  Biso 1.000000     H
    H   1.0     0.749704     0.934606     0.180090  Biso 1.000000     H
    H   1.0     0.250466     0.859693     0.286050  Biso 1.000000     H
    H   1.0     0.750448     0.859691     0.286035  Biso 1.000000     H
    H   1.0     0.250801     0.336994     0.907334  Biso 1.000000     H
    H   1.0     0.750239     0.337038     0.907344  Biso 1.000000     H
    H   1.0     0.250146     0.065381     0.819892  Biso 1.000000     H
    H   1.0     0.750022     0.065395     0.819940  Biso 1.000000     H
    H   1.0     0.249599     0.140325     0.713953  Biso 1.000000     H
    H   1.0     0.749681     0.140301     0.713994  Biso 1.000000     H
    H   1.0     0.249929     0.163881     0.407488  Biso 1.000000     H
    H   1.0     0.749965     0.163883     0.407490  Biso 1.000000     H
    H   1.0     0.249708     0.434550     0.318458  Biso 1.000000     H
    H   1.0     0.749682     0.434543     0.318445  Biso 1.000000     H
    H   1.0     0.250065     0.358477     0.212912  Biso 1.000000     H
    H   1.0     0.750073     0.358458     0.212903  Biso 1.000000     H
    H   1.0     0.250062     0.836129     0.592537  Biso 1.000000     H
    H   1.0     0.749965     0.836128     0.592531  Biso 1.000000     H
    H   1.0     0.250321     0.565460     0.681568  Biso 1.000000     H
    H   1.0     0.750277     0.565469     0.681576  Biso 1.000000     H
    H   1.0     0.249980     0.641536     0.787114  Biso 1.000000     H
    H   1.0     0.749921     0.641555     0.787118  Biso 1.000000     H
    C   1.0     0.045720     0.525788     0.408578  Biso 1.000000     C
    C   1.0     0.545705     0.525799     0.408572  Biso 1.000000     C
    C   1.0     0.045481     0.664478     0.463670  Biso 1.000000     C
    C   1.0     0.545471     0.664473     0.463681  Biso 1.000000     C
    C   1.0     0.046334     0.474388     0.591575  Biso 1.000000     C
    C   1.0     0.546324     0.474359     0.591566  Biso 1.000000     C
    C   1.0     0.046560     0.335659     0.536547  Biso 1.000000     C
    C   1.0     0.546541     0.335655     0.536510  Biso 1.000000     C
    C   1.0     0.454017     0.024364     0.091524  Biso 1.000000     C
    C   1.0     0.954012     0.024525     0.091442  Biso 1.000000     C
    C   1.0     0.453853     0.164024     0.037432  Biso 1.000000     C
    C   1.0     0.953844     0.164141     0.037309  Biso 1.000000     C
    C   1.0     0.453371     0.975378     0.908659  Biso 1.000000     C
    C   1.0     0.953368     0.975397     0.908659  Biso 1.000000     C
    C   1.0     0.453780     0.835787     0.962831  Biso 1.000000     C
    C   1.0     0.953747     0.835779     0.962800  Biso 1.000000     C
    C   1.0     0.454270     0.474212     0.591441  Biso 1.000000     C
    C   1.0     0.954249     0.474238     0.591445  Biso 1.000000     C
    C   1.0     0.454501     0.335541     0.536328  Biso 1.000000     C
    C   1.0     0.954490     0.335543     0.536358  Biso 1.000000     C
    C   1.0     0.453651     0.525644     0.408453  Biso 1.000000     C
    C   1.0     0.953635     0.525634     0.408455  Biso 1.000000     C
    C   1.0     0.453431     0.664352     0.463505  Biso 1.000000     C
    C   1.0     0.953411     0.664358     0.463489  Biso 1.000000     C
    C   1.0     0.045449     0.975614     0.908497  Biso 1.000000     C
    C   1.0     0.545420     0.975615     0.908494  Biso 1.000000     C
    C   1.0     0.045821     0.835967     0.962608  Biso 1.000000     C
    C   1.0     0.545824     0.835994     0.962634  Biso 1.000000     C
    C   1.0     0.046094     0.024668     0.091357  Biso 1.000000     C
    C   1.0     0.546066     0.024505     0.091439  Biso 1.000000     C
    C   1.0     0.045921     0.164241     0.037161  Biso 1.000000     C
    C   1.0     0.545895     0.164123     0.037284  Biso 1.000000     C
    C   1.0     0.250099     0.719960     0.250504  Biso 1.000000     C
    C   1.0     0.750089     0.719959     0.250490  Biso 1.000000     C
    C   1.0     0.249638     0.666178     0.195032  Biso 1.000000     C
    C   1.0     0.749634     0.666175     0.195019  Biso 1.000000     C
    C   1.0     0.249131     0.706026     0.135127  Biso 1.000000     C
    C   1.0     0.749142     0.706022     0.135114  Biso 1.000000     C
    C   1.0     0.249188     0.803409     0.129178  Biso 1.000000     C
    C   1.0     0.749196     0.803404     0.129163  Biso 1.000000     C
    C   1.0     0.249704     0.858921     0.183825  Biso 1.000000     C
    C   1.0     0.749703     0.858917     0.183809  Biso 1.000000     C
    C   1.0     0.250144     0.817135     0.243431  Biso 1.000000     C
    C   1.0     0.750130     0.817134     0.243416  Biso 1.000000     C
    C   1.0     0.250111     0.678887     0.316040  Biso 1.000000     C
    C   1.0     0.750101     0.678886     0.316028  Biso 1.000000     C
    C   1.0     0.248745     0.844788     0.063991  Biso 1.000000     C
    C   1.0     0.748746     0.844783     0.063977  Biso 1.000000     C
    C   1.0     0.249898     0.280046     0.749516  Biso 1.000000     C
    C   1.0     0.749845     0.280040     0.749532  Biso 1.000000     C
    C   1.0     0.250265     0.333820     0.804993  Biso 1.000000     C
    C   1.0     0.750064     0.333825     0.805004  Biso 1.000000     C
    C   1.0     0.250533     0.293956     0.864893  Biso 1.000000     C
    C   1.0     0.750142     0.293981     0.864911  Biso 1.000000     C
    C   1.0     0.250414     0.196572     0.870832  Biso 1.000000     C
    C   1.0     0.750040     0.196599     0.870866  Biso 1.000000     C
    C   1.0     0.250136     0.141071     0.816181  Biso 1.000000     C
    C   1.0     0.749983     0.141084     0.816220  Biso 1.000000     C
    C   1.0     0.249858     0.182869     0.756579  Biso 1.000000     C
    C   1.0     0.749803     0.182865     0.756611  Biso 1.000000     C
    C   1.0     0.249882     0.321129     0.683982  Biso 1.000000     C
    C   1.0     0.749923     0.321109     0.683993  Biso 1.000000     C
    C   1.0     0.250445     0.155181     0.936015  Biso 1.000000     C
    C   1.0     0.749963     0.155234     0.936059  Biso 1.000000     C
    C   1.0     0.249882     0.219131     0.249320  Biso 1.000000     C
    C   1.0     0.749932     0.219115     0.249319  Biso 1.000000     C
    C   1.0     0.249740     0.165965     0.305125  Biso 1.000000     C
    C   1.0     0.749795     0.165957     0.305127  Biso 1.000000     C
    C   1.0     0.249845     0.206466     0.364785  Biso 1.000000     C
    C   1.0     0.749874     0.206464     0.364785  Biso 1.000000     C
    C   1.0     0.249834     0.303884     0.370097  Biso 1.000000     C
    C   1.0     0.749841     0.303883     0.370092  Biso 1.000000     C
    C   1.0     0.249780     0.358822     0.315120  Biso 1.000000     C
    C   1.0     0.749773     0.358814     0.315111  Biso 1.000000     C
    C   1.0     0.249924     0.316391     0.255789  Biso 1.000000     C
    C   1.0     0.749947     0.316376     0.255782  Biso 1.000000     C
    C   1.0     0.250034     0.177454     0.184007  Biso 1.000000     C
    C   1.0     0.750082     0.177423     0.184012  Biso 1.000000     C
    C   1.0     0.249910     0.346296     0.434927  Biso 1.000000     C
    C   1.0     0.749910     0.346299     0.434922  Biso 1.000000     C
    C   1.0     0.250147     0.780881     0.750704  Biso 1.000000     C
    C   1.0     0.750071     0.780899     0.750702  Biso 1.000000     C
    C   1.0     0.250271     0.834046     0.694900  Biso 1.000000     C
    C   1.0     0.750176     0.834055     0.694894  Biso 1.000000     C
    C   1.0     0.250163     0.793545     0.635240  Biso 1.000000     C
    C   1.0     0.750068     0.793547     0.635235  Biso 1.000000     C
    C   1.0     0.250177     0.696127     0.629929  Biso 1.000000     C
    C   1.0     0.750109     0.696128     0.629929  Biso 1.000000     C
    C   1.0     0.250253     0.641189     0.684907  Biso 1.000000     C
    C   1.0     0.750185     0.641198     0.684911  Biso 1.000000     C
    C   1.0     0.250112     0.683621     0.744237  Biso 1.000000     C
    C   1.0     0.750052     0.683638     0.744240  Biso 1.000000     C
    C   1.0     0.249958     0.822560     0.816014  Biso 1.000000     C
    C   1.0     0.749886     0.822596     0.816009  Biso 1.000000     C
    C   1.0     0.250079     0.653721     0.565097  Biso 1.000000     C
    C   1.0     0.750047     0.653711     0.565099  Biso 1.000000     C
    N   1.0     0.091221     0.594646     0.436817  Biso 1.000000     N
    N   1.0     0.591209     0.594649     0.436817  Biso 1.000000     N
    N   1.0     0.092084     0.405641     0.563520  Biso 1.000000     N
    N   1.0     0.592071     0.405619     0.563499  Biso 1.000000     N
    N   1.0     0.408299     0.093585     0.063905  Biso 1.000000     N
    N   1.0     0.908283     0.093729     0.063809  Biso 1.000000     N
    N   1.0     0.407946     0.906014     0.936461  Biso 1.000000     N
    N   1.0     0.907928     0.906028     0.936444  Biso 1.000000     N
    N   1.0     0.408765     0.405364     0.563194  Biso 1.000000     N
    N   1.0     0.908750     0.405376     0.563209  Biso 1.000000     N
    N   1.0     0.407903     0.594384     0.436520  Biso 1.000000     N
    N   1.0     0.907886     0.594383     0.436510  Biso 1.000000     N
    N   1.0     0.091269     0.906451     0.936091  Biso 1.000000     N
    N   1.0     0.591256     0.906476     0.936101  Biso 1.000000     N
    N   1.0     0.091635     0.093958     0.063572  Biso 1.000000     N
    N   1.0     0.591600     0.093820     0.063680  Biso 1.000000     N
    N   1.0     0.249805     0.563004     0.196875  Biso 1.000000     N
    N   1.0     0.749813     0.563002     0.196866  Biso 1.000000     N
    N   1.0     0.250112     0.436995     0.803152  Biso 1.000000     N
    N   1.0     0.750026     0.437001     0.803156  Biso 1.000000     N
    N   1.0     0.249627     0.062796     0.304029  Biso 1.000000     N
    N   1.0     0.749690     0.062788     0.304031  Biso 1.000000     N
    N   1.0     0.250379     0.937216     0.695995  Biso 1.000000     N
    N   1.0     0.750258     0.937224     0.695988  Biso 1.000000     N
    O   1.0     0.322816     0.524012     0.197110  Biso 1.000000     O
    O   1.0     0.822822     0.524008     0.197108  Biso 1.000000     O
    O   1.0     0.322943     0.476336     0.805646  Biso 1.000000     O
    O   1.0     0.822873     0.476309     0.805638  Biso 1.000000     O
    O   1.0     0.176657     0.023658     0.305590  Biso 1.000000     O
    O   1.0     0.676729     0.023636     0.305598  Biso 1.000000     O
    O   1.0     0.177459     0.976367     0.694591  Biso 1.000000     O
    O   1.0     0.677334     0.976364     0.694595  Biso 1.000000     O
    O   1.0     0.177117     0.476017     0.802910  Biso 1.000000     O
    O   1.0     0.677048     0.476058     0.802910  Biso 1.000000     O
    O   1.0     0.176990     0.523634     0.194381  Biso 1.000000     O
    O   1.0     0.676995     0.523635     0.194379  Biso 1.000000     O
    O   1.0     0.323348     0.976356     0.694437  Biso 1.000000     O
    O   1.0     0.823220     0.976378     0.694425  Biso 1.000000     O
    O   1.0     0.322546     0.023641     0.305420  Biso 1.000000     O
    O   1.0     0.822615     0.023646     0.305418  Biso 1.000000     O
    O   1.0     0.248042     0.590048     0.322014  Biso 1.000000     O
    O   1.0     0.748024     0.590049     0.322008  Biso 1.000000     O
    O   1.0     0.251980     0.733869     0.363028  Biso 1.000000     O
    O   1.0     0.751962     0.733875     0.363012  Biso 1.000000     O
    O   1.0     0.248591     0.933339     0.056216  Biso 1.000000     O
    O   1.0     0.748623     0.933335     0.056201  Biso 1.000000     O
    O   1.0     0.248521     0.789256     0.016899  Biso 1.000000     O
    O   1.0     0.748509     0.789254     0.016886  Biso 1.000000     O
    O   1.0     0.251954     0.409967     0.678008  Biso 1.000000     O
    O   1.0     0.751938     0.409948     0.678013  Biso 1.000000     O
    O   1.0     0.248035     0.266146     0.636995  Biso 1.000000     O
    O   1.0     0.748060     0.266123     0.637007  Biso 1.000000     O
    O   1.0     0.251632     0.066643     0.943801  Biso 1.000000     O
    O   1.0     0.751725     0.066703     0.943858  Biso 1.000000     O
    O   1.0     0.249279     0.210709     0.983098  Biso 1.000000     O
    O   1.0     0.748336     0.210761     0.983135  Biso 1.000000     O
    O   1.0     0.248384     0.088615     0.178348  Biso 1.000000     O
    O   1.0     0.748422     0.088584     0.178362  Biso 1.000000     O
    O   1.0     0.251732     0.232142     0.136779  Biso 1.000000     O
    O   1.0     0.751809     0.232098     0.136777  Biso 1.000000     O
    O   1.0     0.248186     0.434781     0.441727  Biso 1.000000     O
    O   1.0     0.748167     0.434782     0.441721  Biso 1.000000     O
    O   1.0     0.251571     0.291328     0.482464  Biso 1.000000     O
    O   1.0     0.751562     0.291330     0.482460  Biso 1.000000     O
    O   1.0     0.251507     0.911401     0.821669  Biso 1.000000     O
    O   1.0     0.751451     0.911438     0.821655  Biso 1.000000     O
    O   1.0     0.248265     0.767876     0.863244  Biso 1.000000     O
    O   1.0     0.748233     0.767924     0.863246  Biso 1.000000     O
    O   1.0     0.251803     0.565237     0.558294  Biso 1.000000     O
    O   1.0     0.751782     0.565227     0.558301  Biso 1.000000     O
    O   1.0     0.248411     0.708693     0.517563  Biso 1.000000     O
    O   1.0     0.748390     0.708677     0.517560  Biso 1.000000     O
   Cd   1.0     0.249588     0.602290     0.434057  Biso 1.000000    Cd
   Cd   1.0     0.749577     0.602292     0.434048  Biso 1.000000    Cd
   Cd   1.0     0.250394     0.397730     0.565968  Biso 1.000000    Cd
   Cd   1.0     0.750385     0.397711     0.565974  Biso 1.000000    Cd
   Cd   1.0     0.250013     0.101215     0.065929  Biso 1.000000    Cd
   Cd   1.0     0.749941     0.101196     0.065935  Biso 1.000000    Cd
   Cd   1.0     0.249568     0.898788     0.934093  Biso 1.000000    Cd
   Cd   1.0     0.749557     0.898835     0.934089  Biso 1.000000    Cd
