#======================================================================

# CRYSTAL DATA

#----------------------------------------------------------------------

data_VESTA_phase_1


_pd_phase_name                         MOF
_cell_length_a                         15.13100
_cell_length_b                         14.40600
_cell_length_c                         21.12900
_cell_angle_alpha                      90.02600
_cell_angle_beta                       90.03000
_cell_angle_gamma                      92.65600
_symmetry_space_group_name_H-M         "P 1"
_symmetry_Int_Tables_number            1

loop_
_symmetry_equiv_pos_as_xyz
   "x, y, z"

loop_
   _atom_site_label
   _atom_site_occupancy
   _atom_site_fract_x
   _atom_site_fract_y
   _atom_site_fract_z
   _atom_site_adp_type
   _atom_site_B_iso_or_equiv
   _atom_site_type_symbol
    H   1.0     0.255199     0.332932     0.906155  Biso 1.000000     H
    H   1.0     0.755218     0.332940     0.906157  Biso 1.000000     H
    H   1.0     0.245565     0.062752     0.817615  Biso 1.000000     H
    H   1.0     0.745587     0.062758     0.817619  Biso 1.000000     H
    H   1.0     0.240432     0.138194     0.712163  Biso 1.000000     H
    H   1.0     0.740436     0.138197     0.712166  Biso 1.000000     H
    H   1.0     0.414824     0.524813     0.616074  Biso 1.000000     H
    H   1.0     0.914831     0.524813     0.616077  Biso 1.000000     H
    H   1.0     0.083384     0.526920     0.616055  Biso 1.000000     H
    H   1.0     0.583395     0.526916     0.616053  Biso 1.000000     H
    H   1.0     0.075435     0.282511     0.511420  Biso 1.000000     H
    H   1.0     0.575441     0.282502     0.511422  Biso 1.000000     H
    H   1.0     0.406429     0.281594     0.510287  Biso 1.000000     H
    H   1.0     0.906440     0.281597     0.510286  Biso 1.000000     H
    H   1.0     0.245948     0.167444     0.406093  Biso 1.000000     H
    H   1.0     0.745949     0.167420     0.406097  Biso 1.000000     H
    H   1.0     0.251834     0.437479     0.317609  Biso 1.000000     H
    H   1.0     0.751841     0.437456     0.317612  Biso 1.000000     H
    H   1.0     0.257584     0.362081     0.212144  Biso 1.000000     H
    H   1.0     0.757593     0.362057     0.212148  Biso 1.000000     H
    H   1.0     0.085152     0.975377     0.116379  Biso 1.000000     H
    H   1.0     0.585159     0.975384     0.116362  Biso 1.000000     H
    H   1.0     0.416587     0.973320     0.115832  Biso 1.000000     H
    H   1.0     0.916598     0.973306     0.115848  Biso 1.000000     H
    H   1.0     0.425005     0.217589     0.011222  Biso 1.000000     H
    H   1.0     0.925007     0.217563     0.011226  Biso 1.000000     H
    H   1.0     0.093993     0.218279     0.010359  Biso 1.000000     H
    H   1.0     0.594008     0.218298     0.010355  Biso 1.000000     H
    H   1.0     0.244804     0.667043     0.093843  Biso 1.000000     H
    H   1.0     0.744802     0.667032     0.093843  Biso 1.000000     H
    H   1.0     0.254441     0.937224     0.182382  Biso 1.000000     H
    H   1.0     0.754430     0.937213     0.182381  Biso 1.000000     H
    H   1.0     0.259575     0.861783     0.287834  Biso 1.000000     H
    H   1.0     0.759582     0.861773     0.287833  Biso 1.000000     H
    H   1.0     0.085181     0.475160     0.383923  Biso 1.000000     H
    H   1.0     0.585189     0.475161     0.383924  Biso 1.000000     H
    H   1.0     0.416619     0.473060     0.383945  Biso 1.000000     H
    H   1.0     0.916628     0.473054     0.383945  Biso 1.000000     H
    H   1.0     0.424574     0.717473     0.488576  Biso 1.000000     H
    H   1.0     0.924578     0.717462     0.488581  Biso 1.000000     H
    H   1.0     0.093573     0.718376     0.489715  Biso 1.000000     H
    H   1.0     0.593586     0.718381     0.489711  Biso 1.000000     H
    H   1.0     0.254062     0.832546     0.593904  Biso 1.000000     H
    H   1.0     0.754065     0.832540     0.593905  Biso 1.000000     H
    H   1.0     0.248168     0.562510     0.682387  Biso 1.000000     H
    H   1.0     0.748181     0.562505     0.682389  Biso 1.000000     H
    H   1.0     0.242415     0.637908     0.787852  Biso 1.000000     H
    H   1.0     0.742429     0.637904     0.787854  Biso 1.000000     H
    H   1.0     0.414851     0.024597     0.883619  Biso 1.000000     H
    H   1.0     0.914859     0.024591     0.883639  Biso 1.000000     H
    H   1.0     0.083413     0.026655     0.884168  Biso 1.000000     H
    H   1.0     0.583423     0.026668     0.884151  Biso 1.000000     H
    H   1.0     0.074997     0.782385     0.988776  Biso 1.000000     H
    H   1.0     0.575011     0.782410     0.988773  Biso 1.000000     H
    H   1.0     0.406008     0.781695     0.989639  Biso 1.000000     H
    H   1.0     0.906010     0.781675     0.989644  Biso 1.000000     H
    C   1.0     0.243837     0.277265     0.748431  Biso 1.000000     C
    C   1.0     0.743841     0.277268     0.748433  Biso 1.000000     C
    C   1.0     0.247893     0.330441     0.804084  Biso 1.000000     C
    C   1.0     0.747901     0.330446     0.804085  Biso 1.000000     C
    C   1.0     0.251595     0.290287     0.863614  Biso 1.000000     C
    C   1.0     0.751608     0.290294     0.863616  Biso 1.000000     C
    C   1.0     0.250304     0.193179     0.869018  Biso 1.000000     C
    C   1.0     0.750325     0.193187     0.869021  Biso 1.000000     C
    C   1.0     0.246062     0.138233     0.814199  Biso 1.000000     C
    C   1.0     0.746078     0.138239     0.814202  Biso 1.000000     C
    C   1.0     0.243105     0.180338     0.754915  Biso 1.000000     C
    C   1.0     0.743114     0.180342     0.754918  Biso 1.000000     C
    C   1.0     0.242789     0.319159     0.683316  Biso 1.000000     C
    C   1.0     0.742788     0.319160     0.683318  Biso 1.000000     C
    C   1.0     0.253127     0.151406     0.933879  Biso 1.000000     C
    C   1.0     0.753153     0.151411     0.933881  Biso 1.000000     C
    C   1.0     0.451279     0.471539     0.592117  Biso 1.000000     C
    C   1.0     0.951287     0.471540     0.592119  Biso 1.000000     C
    C   1.0     0.043386     0.472501     0.592256  Biso 1.000000     C
    C   1.0     0.543395     0.472498     0.592255  Biso 1.000000     C
    C   1.0     0.038803     0.336870     0.534110  Biso 1.000000     C
    C   1.0     0.538810     0.336864     0.534111  Biso 1.000000     C
    C   1.0     0.446735     0.336277     0.533614  Biso 1.000000     C
    C   1.0     0.946745     0.336280     0.533614  Biso 1.000000     C
    C   1.0     0.256009     0.223097     0.248373  Biso 1.000000     C
    C   1.0     0.756015     0.223074     0.248376  Biso 1.000000     C
    C   1.0     0.252902     0.170035     0.304031  Biso 1.000000     C
    C   1.0     0.752910     0.170011     0.304035  Biso 1.000000     C
    C   1.0     0.248756     0.210093     0.363571  Biso 1.000000     C
    C   1.0     0.748767     0.210070     0.363575  Biso 1.000000     C
    C   1.0     0.248704     0.307128     0.368991  Biso 1.000000     C
    C   1.0     0.748701     0.307105     0.368994  Biso 1.000000     C
    C   1.0     0.252100     0.362035     0.314178  Biso 1.000000     C
    C   1.0     0.752112     0.362012     0.314182  Biso 1.000000     C
    C   1.0     0.255444     0.319953     0.254872  Biso 1.000000     C
    C   1.0     0.755448     0.319929     0.254876  Biso 1.000000     C
    C   1.0     0.257369     0.181031     0.183290  Biso 1.000000     C
    C   1.0     0.757382     0.181013     0.183293  Biso 1.000000     C
    C   1.0     0.245571     0.348758     0.433886  Biso 1.000000     C
    C   1.0     0.745565     0.348743     0.433887  Biso 1.000000     C
    C   1.0     0.048827     0.028600     0.092247  Biso 1.000000     C
    C   1.0     0.548835     0.028612     0.092234  Biso 1.000000     C
    C   1.0     0.456721     0.027699     0.092161  Biso 1.000000     C
    C   1.0     0.956729     0.027684     0.092173  Biso 1.000000     C
    C   1.0     0.461546     0.163229     0.033987  Biso 1.000000     C
    C   1.0     0.961550     0.163207     0.033993  Biso 1.000000     C
    C   1.0     0.053605     0.163692     0.033653  Biso 1.000000     C
    C   1.0     0.553618     0.163710     0.033647  Biso 1.000000     C
    C   1.0     0.256168     0.722712     0.251567  Biso 1.000000     C
    C   1.0     0.756178     0.722703     0.251566  Biso 1.000000     C
    C   1.0     0.252110     0.669535     0.195914  Biso 1.000000     C
    C   1.0     0.752120     0.669526     0.195914  Biso 1.000000     C
    C   1.0     0.248409     0.709688     0.136384  Biso 1.000000     C
    C   1.0     0.748411     0.709677     0.136383  Biso 1.000000     C
    C   1.0     0.249700     0.806796     0.130980  Biso 1.000000     C
    C   1.0     0.749694     0.806785     0.130979  Biso 1.000000     C
    C   1.0     0.253943     0.861743     0.185799  Biso 1.000000     C
    C   1.0     0.753940     0.861732     0.185798  Biso 1.000000     C
    C   1.0     0.256898     0.819638     0.245083  Biso 1.000000     C
    C   1.0     0.756908     0.819629     0.245081  Biso 1.000000     C
    C   1.0     0.257217     0.680817     0.316682  Biso 1.000000     C
    C   1.0     0.757231     0.680811     0.316682  Biso 1.000000     C
    C   1.0     0.246874     0.848570     0.066119  Biso 1.000000     C
    C   1.0     0.746867     0.848561     0.066119  Biso 1.000000     C
    C   1.0     0.048726     0.528433     0.407881  Biso 1.000000     C
    C   1.0     0.548734     0.528436     0.407881  Biso 1.000000     C
    C   1.0     0.456618     0.527478     0.407743  Biso 1.000000     C
    C   1.0     0.956627     0.527472     0.407744  Biso 1.000000     C
    C   1.0     0.461204     0.663112     0.465887  Biso 1.000000     C
    C   1.0     0.961210     0.663103     0.465891  Biso 1.000000     C
    C   1.0     0.053267     0.663692     0.466387  Biso 1.000000     C
    C   1.0     0.553279     0.663698     0.466384  Biso 1.000000     C
    C   1.0     0.243995     0.776891     0.751624  Biso 1.000000     C
    C   1.0     0.744004     0.776887     0.751625  Biso 1.000000     C
    C   1.0     0.247099     0.829955     0.695965  Biso 1.000000     C
    C   1.0     0.747109     0.829949     0.695966  Biso 1.000000     C
    C   1.0     0.251243     0.789896     0.636426  Biso 1.000000     C
    C   1.0     0.751254     0.789891     0.636427  Biso 1.000000     C
    C   1.0     0.251308     0.692861     0.631006  Biso 1.000000     C
    C   1.0     0.751313     0.692856     0.631007  Biso 1.000000     C
    C   1.0     0.247896     0.637953     0.685818  Biso 1.000000     C
    C   1.0     0.747912     0.637948     0.685820  Biso 1.000000     C
    C   1.0     0.244559     0.680036     0.745124  Biso 1.000000     C
    C   1.0     0.744570     0.680032     0.745125  Biso 1.000000     C
    C   1.0     0.242629     0.818954     0.816707  Biso 1.000000     C
    C   1.0     0.742641     0.818951     0.816708  Biso 1.000000     C
    C   1.0     0.254444     0.651227     0.566112  Biso 1.000000     C
    C   1.0     0.754447     0.651223     0.566112  Biso 1.000000     C
    C   1.0     0.451176     0.971374     0.907751  Biso 1.000000     C
    C   1.0     0.951183     0.971363     0.907766  Biso 1.000000     C
    C   1.0     0.043280     0.972275     0.907839  Biso 1.000000     C
    C   1.0     0.543291     0.972290     0.907825  Biso 1.000000     C
    C   1.0     0.038455     0.836744     0.966012  Biso 1.000000     C
    C   1.0     0.538469     0.836766     0.966006  Biso 1.000000     C
    C   1.0     0.446397     0.836282     0.966345  Biso 1.000000     C
    C   1.0     0.946400     0.836263     0.966352  Biso 1.000000     C
    N   1.0     0.246829     0.433143     0.802862  Biso 1.000000     N
    N   1.0     0.746839     0.433148     0.802862  Biso 1.000000     N
    N   1.0     0.403361     0.404054     0.562143  Biso 1.000000     N
    N   1.0     0.903370     0.404055     0.562145  Biso 1.000000     N
    N   1.0     0.086783     0.405606     0.562795  Biso 1.000000     N
    N   1.0     0.586791     0.405600     0.562795  Biso 1.000000     N
    N   1.0     0.256060     0.067584     0.302820  Biso 1.000000     N
    N   1.0     0.756083     0.067559     0.302822  Biso 1.000000     N
    N   1.0     0.096868     0.095954     0.062315  Biso 1.000000     N
    N   1.0     0.596878     0.095968     0.062306  Biso 1.000000     N
    N   1.0     0.413447     0.094579     0.062589  Biso 1.000000     N
    N   1.0     0.913453     0.094559     0.062598  Biso 1.000000     N
    N   1.0     0.253173     0.566833     0.197137  Biso 1.000000     N
    N   1.0     0.753181     0.566823     0.197137  Biso 1.000000     N
    N   1.0     0.096643     0.595918     0.437856  Biso 1.000000     N
    N   1.0     0.596653     0.595921     0.437855  Biso 1.000000     N
    N   1.0     0.413222     0.594376     0.437203  Biso 1.000000     N
    N   1.0     0.913229     0.594368     0.437205  Biso 1.000000     N
    N   1.0     0.243934     0.932406     0.697177  Biso 1.000000     N
    N   1.0     0.743944     0.932401     0.697177  Biso 1.000000     N
    N   1.0     0.403135     0.904020     0.937682  Biso 1.000000     N
    N   1.0     0.903141     0.904006     0.937694  Biso 1.000000     N
    N   1.0     0.086555     0.905395     0.937410  Biso 1.000000     N
    N   1.0     0.586566     0.905415     0.937401  Biso 1.000000     N
    O   1.0     0.256642     0.407168     0.677729  Biso 1.000000     O
    O   1.0     0.756635     0.407170     0.677729  Biso 1.000000     O
    O   1.0     0.229407     0.265579     0.636298  Biso 1.000000     O
    O   1.0     0.729415     0.265577     0.636300  Biso 1.000000     O
    O   1.0     0.248646     0.063312     0.941296  Biso 1.000000     O
    O   1.0     0.748680     0.063317     0.941295  Biso 1.000000     O
    O   1.0     0.259347     0.207003     0.980903  Biso 1.000000     O
    O   1.0     0.759358     0.207006     0.980906  Biso 1.000000     O
    O   1.0     0.318511     0.476603     0.811160  Biso 1.000000     O
    O   1.0     0.818522     0.476607     0.811159  Biso 1.000000     O
    O   1.0     0.173717     0.467680     0.797243  Biso 1.000000     O
    O   1.0     0.673728     0.467688     0.797244  Biso 1.000000     O
    O   1.0     0.243900     0.092957     0.177744  Biso 1.000000     O
    O   1.0     0.743902     0.092941     0.177743  Biso 1.000000     O
    O   1.0     0.270532     0.234532     0.136251  Biso 1.000000     O
    O   1.0     0.770538     0.234521     0.136255  Biso 1.000000     O
    O   1.0     0.248055     0.436829     0.441378  Biso 1.000000     O
    O   1.0     0.748066     0.436815     0.441374  Biso 1.000000     O
    O   1.0     0.240930     0.293069     0.480880  Biso 1.000000     O
    O   1.0     0.740944     0.293059     0.480885  Biso 1.000000     O
    O   1.0     0.185320     0.022503     0.311293  Biso 1.000000     O
    O   1.0     0.685358     0.022452     0.311300  Biso 1.000000     O
    O   1.0     0.330003     0.034961     0.297054  Biso 1.000000     O
    O   1.0     0.830036     0.034963     0.297050  Biso 1.000000     O
    O   1.0     0.243362     0.592809     0.322269  Biso 1.000000     O
    O   1.0     0.743391     0.592800     0.322270  Biso 1.000000     O
    O   1.0     0.270595     0.734398     0.363700  Biso 1.000000     O
    O   1.0     0.770606     0.734394     0.363700  Biso 1.000000     O
    O   1.0     0.251357     0.936663     0.058702  Biso 1.000000     O
    O   1.0     0.751337     0.936656     0.058704  Biso 1.000000     O
    O   1.0     0.240656     0.792972     0.019096  Biso 1.000000     O
    O   1.0     0.740661     0.792967     0.019093  Biso 1.000000     O
    O   1.0     0.181492     0.523371     0.188839  Biso 1.000000     O
    O   1.0     0.681496     0.523368     0.188840  Biso 1.000000     O
    O   1.0     0.326286     0.532297     0.202755  Biso 1.000000     O
    O   1.0     0.826291     0.532280     0.202755  Biso 1.000000     O
    O   1.0     0.256105     0.907027     0.822256  Biso 1.000000     O
    O   1.0     0.756113     0.907024     0.822256  Biso 1.000000     O
    O   1.0     0.229472     0.765449     0.863745  Biso 1.000000     O
    O   1.0     0.729479     0.765447     0.863746  Biso 1.000000     O
    O   1.0     0.251945     0.563155     0.558624  Biso 1.000000     O
    O   1.0     0.751956     0.563151     0.558623  Biso 1.000000     O
    O   1.0     0.259068     0.706912     0.519116  Biso 1.000000     O
    O   1.0     0.759080     0.706909     0.519117  Biso 1.000000     O
    O   1.0     0.314663     0.977504     0.688701  Biso 1.000000     O
    O   1.0     0.814678     0.977492     0.688702  Biso 1.000000     O
    O   1.0     0.169984     0.965011     0.702947  Biso 1.000000     O
    O   1.0     0.669997     0.965013     0.702946  Biso 1.000000     O
   Cd   1.0     0.244432     0.396606     0.565730  Biso 1.000000    Cd
   Cd   1.0     0.744439     0.396601     0.565729  Biso 1.000000    Cd
   Cd   1.0     0.255769     0.103422     0.065698  Biso 1.000000    Cd
   Cd   1.0     0.755777     0.103416     0.065697  Biso 1.000000    Cd
   Cd   1.0     0.255573     0.603375     0.434269  Biso 1.000000    Cd
   Cd   1.0     0.755582     0.603368     0.434270  Biso 1.000000    Cd
   Cd   1.0     0.244233     0.896555     0.934301  Biso 1.000000    Cd
   Cd   1.0     0.744242     0.896555     0.934302  Biso 1.000000    Cd
