#======================================================================

# CRYSTAL DATA

#----------------------------------------------------------------------

data_VESTA_phase_1


_pd_phase_name                         MOF
_cell_length_a                         15.38000
_cell_length_b                         14.39800
_cell_length_c                         21.41800
_cell_angle_alpha                      90.38100
_cell_angle_beta                       89.79300
_cell_angle_gamma                      100.43100
_symmetry_space_group_name_H-M         "P 1"
_symmetry_Int_Tables_number            1

loop_
_symmetry_equiv_pos_as_xyz
   "x, y, z"

loop_
   _atom_site_label
   _atom_site_occupancy
   _atom_site_fract_x
   _atom_site_fract_y
   _atom_site_fract_z
   _atom_site_adp_type
   _atom_site_B_iso_or_equiv
   _atom_site_type_symbol
    H   1.0     0.223322     0.304268     0.904547  Biso 1.000000     H
    H   1.0     0.722459     0.304316     0.904141  Biso 1.000000     H
    H   1.0     0.270342     0.051085     0.811918  Biso 1.000000     H
    H   1.0     0.770723     0.052444     0.810483  Biso 1.000000     H
    H   1.0     0.257010     0.126234     0.708838  Biso 1.000000     H
    H   1.0     0.756912     0.128216     0.707697  Biso 1.000000     H
    H   1.0     0.430487     0.431246     0.669466  Biso 1.000000     H
    H   1.0     0.930645     0.432180     0.669107  Biso 1.000000     H
    H   1.0     0.096415     0.434652     0.668990  Biso 1.000000     H
    H   1.0     0.596399     0.435589     0.668881  Biso 1.000000     H
    H   1.0     0.085459     0.368693     0.479370  Biso 1.000000     H
    H   1.0     0.585576     0.372419     0.478861  Biso 1.000000     H
    H   1.0     0.418797     0.359474     0.481458  Biso 1.000000     H
    H   1.0     0.918980     0.358120     0.481498  Biso 1.000000     H
    H   1.0     0.280536     0.198640     0.403457  Biso 1.000000     H
    H   1.0     0.780850     0.199196     0.403264  Biso 1.000000     H
    H   1.0     0.231780     0.450745     0.312746  Biso 1.000000     H
    H   1.0     0.731468     0.450945     0.312417  Biso 1.000000     H
    H   1.0     0.245750     0.375578     0.209219  Biso 1.000000     H
    H   1.0     0.744510     0.375221     0.208937  Biso 1.000000     H
    H   1.0     0.068241     0.000000     0.165684  Biso 1.000000     H
    H   1.0     0.568887     0.000000     0.165544  Biso 1.000000     H
    H   1.0     0.402889     0.000000     0.165159  Biso 1.000000     H
    H   1.0     0.902266     0.000000     0.165092  Biso 1.000000     H
    H   1.0     0.416820     0.135709    -0.022241  Biso 1.000000     H
    H   1.0     0.916714     0.135974    -0.022338  Biso 1.000000     H
    H   1.0     0.083311     0.147850    -0.019615  Biso 1.000000     H
    H   1.0     0.583446     0.147620    -0.019774  Biso 1.000000     H
    H   1.0     0.277948     0.697782     0.095864  Biso 1.000000     H
    H   1.0     0.777648     0.697161     0.095356  Biso 1.000000     H
    H   1.0     0.230322     0.950030     0.189357  Biso 1.000000     H
    H   1.0     0.730410     0.950173     0.188104  Biso 1.000000     H
    H   1.0     0.244386     0.874448     0.292196  Biso 1.000000     H
    H   1.0     0.744905     0.875513     0.291088  Biso 1.000000     H
    H   1.0     0.071021     0.570245     0.331228  Biso 1.000000     H
    H   1.0     0.570900     0.570831     0.331192  Biso 1.000000     H
    H   1.0     0.404850     0.566185     0.331590  Biso 1.000000     H
    H   1.0     0.905133     0.566482     0.331350  Biso 1.000000     H
    H   1.0     0.415536     0.631525     0.521290  Biso 1.000000     H
    H   1.0     0.915476     0.631642     0.521085  Biso 1.000000     H
    H   1.0     0.082154     0.643793     0.518927  Biso 1.000000     H
    H   1.0     0.582317     0.644418     0.518878  Biso 1.000000     H
    H   1.0     0.218423     0.802420     0.596663  Biso 1.000000     H
    H   1.0     0.721834     0.804807     0.596010  Biso 1.000000     H
    H   1.0     0.269799     0.551520     0.687524  Biso 1.000000     H
    H   1.0     0.768001     0.552098     0.687250  Biso 1.000000     H
    H   1.0     0.255539     0.626679     0.790969  Biso 1.000000     H
    H   1.0     0.753532     0.627565     0.790626  Biso 1.000000     H
    H   1.0     0.430707    -0.064015     0.833923  Biso 1.000000     H
    H   1.0     0.931575    -0.062280     0.834461  Biso 1.000000     H
    H   1.0     0.097539    -0.057649     0.835081  Biso 1.000000     H
    H   1.0     0.596868    -0.058417     0.834430  Biso 1.000000     H
    H   1.0     0.083111     0.866409     0.000000  Biso 1.000000     H
    H   1.0     0.583323     0.867830     0.000000  Biso 1.000000     H
    H   1.0     0.416532     0.854687     0.000000  Biso 1.000000     H
    H   1.0     0.916451     0.854069     0.000000  Biso 1.000000     H
    C   1.0     0.235009     0.257742     0.747771  Biso 1.000000     C
    C   1.0     0.734221     0.259175     0.747200  Biso 1.000000     C
    C   1.0     0.224298     0.305485     0.803849  Biso 1.000000     C
    C   1.0     0.723300     0.306336     0.803473  Biso 1.000000     C
    C   1.0     0.230942     0.265047     0.861871  Biso 1.000000     C
    C   1.0     0.730302     0.265535     0.861319  Biso 1.000000     C
    C   1.0     0.248262     0.172860     0.865017  Biso 1.000000     C
    C   1.0     0.748159     0.173555     0.864025  Biso 1.000000     C
    C   1.0     0.257401     0.122897     0.809676  Biso 1.000000     C
    C   1.0     0.757425     0.124137     0.808484  Biso 1.000000     C
    C   1.0     0.250167     0.164911     0.751920  Biso 1.000000     C
    C   1.0     0.749863     0.166519     0.750899  Biso 1.000000     C
    C   1.0     0.238973     0.304541     0.685055  Biso 1.000000     C
    C   1.0     0.738498     0.306728     0.684759  Biso 1.000000     C
    C   1.0     0.258181     0.129481     0.927597  Biso 1.000000     C
    C   1.0     0.758492     0.129593     0.926313  Biso 1.000000     C
    C   1.0     0.465780     0.417385     0.627131  Biso 1.000000     C
    C   1.0     0.965950     0.417419     0.626979  Biso 1.000000     C
    C   1.0     0.057088     0.419435     0.626630  Biso 1.000000     C
    C   1.0     0.557081     0.420533     0.626517  Biso 1.000000     C
    C   1.0     0.050533     0.380714     0.522103  Biso 1.000000     C
    C   1.0     0.550551     0.383291     0.521777  Biso 1.000000     C
    C   1.0     0.459433     0.378324     0.522797  Biso 1.000000     C
    C   1.0     0.959577     0.376989     0.522855  Biso 1.000000     C
    C   1.0     0.268429     0.244380     0.247088  Biso 1.000000     C
    C   1.0     0.767426     0.244184     0.246889  Biso 1.000000     C
    C   1.0     0.279437     0.196970     0.302786  Biso 1.000000     C
    C   1.0     0.779017     0.197070     0.302606  Biso 1.000000     C
    C   1.0     0.272653     0.237655     0.361132  Biso 1.000000     C
    C   1.0     0.772655     0.238032     0.360918  Biso 1.000000     C
    C   1.0     0.254729     0.329615     0.365033  Biso 1.000000     C
    C   1.0     0.754708     0.329990     0.364780  Biso 1.000000     C
    C   1.0     0.245308     0.379159     0.310054  Biso 1.000000     C
    C   1.0     0.744926     0.379320     0.309770  Biso 1.000000     C
    C   1.0     0.252943     0.337083     0.251948  Biso 1.000000     C
    C   1.0     0.752026     0.336938     0.251699  Biso 1.000000     C
    C   1.0     0.263491     0.197043     0.184116  Biso 1.000000     C
    C   1.0     0.762085     0.196652     0.183963  Biso 1.000000     C
    C   1.0     0.243860     0.372913     0.427954  Biso 1.000000     C
    C   1.0     0.744155     0.373469     0.427696  Biso 1.000000     C
    C   1.0     0.033659     0.080939     0.123902  Biso 1.000000     C
    C   1.0     0.534173     0.080714     0.123808  Biso 1.000000     C
    C   1.0     0.442884     0.077554     0.123287  Biso 1.000000     C
    C   1.0     0.942380     0.077857     0.123274  Biso 1.000000     C
    C   1.0     0.451056     0.121642     0.020064  Biso 1.000000     C
    C   1.0     0.950835     0.121931     0.020030  Biso 1.000000     C
    C   1.0     0.041912     0.126564     0.021073  Biso 1.000000     C
    C   1.0     0.542141     0.126336     0.020963  Biso 1.000000     C
    C   1.0     0.266689     0.743306     0.252768  Biso 1.000000     C
    C   1.0     0.767128     0.743980     0.252148  Biso 1.000000     C
    C   1.0     0.277441     0.695981     0.196537  Biso 1.000000     C
    C   1.0     0.777510     0.696209     0.196021  Biso 1.000000     C
    C   1.0     0.270392     0.736732     0.138664  Biso 1.000000     C
    C   1.0     0.770262     0.736497     0.138018  Biso 1.000000     C
    C   1.0     0.252641     0.828734     0.135898  Biso 1.000000     C
    C   1.0     0.752594     0.828531     0.134894  Biso 1.000000     C
    C   1.0     0.243626     0.878339     0.191408  Biso 1.000000     C
    C   1.0     0.743722     0.878495     0.190286  Biso 1.000000     C
    C   1.0     0.251287     0.836067     0.249003  Biso 1.000000     C
    C   1.0     0.751637     0.836684     0.248048  Biso 1.000000     C
    C   1.0     0.262298     0.695988     0.315288  Biso 1.000000     C
    C   1.0     0.763155     0.696971     0.314821  Biso 1.000000     C
    C   1.0     0.241883     0.872532     0.073621  Biso 1.000000     C
    C   1.0     0.742032     0.871635     0.072311  Biso 1.000000     C
    C   1.0     0.035555     0.584550     0.373383  Biso 1.000000     C
    C   1.0     0.535466     0.584940     0.373404  Biso 1.000000     C
    C   1.0     0.444160     0.581735     0.373923  Biso 1.000000     C
    C   1.0     0.944319     0.581788     0.373755  Biso 1.000000     C
    C   1.0     0.450596     0.620133     0.478490  Biso 1.000000     C
    C   1.0     0.950577     0.620101     0.478335  Biso 1.000000     C
    C   1.0     0.041647     0.624653     0.477557  Biso 1.000000     C
    C   1.0     0.541727     0.625115     0.477568  Biso 1.000000     C
    C   1.0     0.231229     0.757235     0.753039  Biso 1.000000     C
    C   1.0     0.732051     0.759047     0.752491  Biso 1.000000     C
    C   1.0     0.219387     0.804205     0.697323  Biso 1.000000     C
    C   1.0     0.721888     0.806539     0.696685  Biso 1.000000     C
    C   1.0     0.226715     0.763634     0.639011  Biso 1.000000     C
    C   1.0     0.728997     0.765723     0.638429  Biso 1.000000     C
    C   1.0     0.245718     0.672108     0.635153  Biso 1.000000     C
    C   1.0     0.746327     0.673523     0.634724  Biso 1.000000     C
    C   1.0     0.255634     0.622849     0.690164  Biso 1.000000     C
    C   1.0     0.754857     0.623851     0.689797  Biso 1.000000     C
    C   1.0     0.247737     0.664913     0.748242  Biso 1.000000     C
    C   1.0     0.746962     0.666095     0.747810  Biso 1.000000     C
    C   1.0     0.236146     0.804723     0.815958  Biso 1.000000     C
    C   1.0     0.736631     0.806360     0.815461  Biso 1.000000     C
    C   1.0     0.257123     0.629068     0.572229  Biso 1.000000     C
    C   1.0     0.757465     0.630144     0.571885  Biso 1.000000     C
    C   1.0     0.465527     0.920379     0.875750  Biso 1.000000     C
    C   1.0     0.966135     0.921426     0.876238  Biso 1.000000     C
    C   1.0     0.057426     0.924622     0.876891  Biso 1.000000     C
    C   1.0     0.556896     0.924085     0.876340  Biso 1.000000     C
    C   1.0     0.048964     0.880417     0.980107  Biso 1.000000     C
    C   1.0     0.548928     0.881121     0.979780  Biso 1.000000     C
    C   1.0     0.457765     0.875787     0.978789  Biso 1.000000     C
    C   1.0     0.957865     0.875575     0.979025  Biso 1.000000     C
    N   1.0     0.201987     0.401003     0.803254  Biso 1.000000     N
    N   1.0     0.699986     0.401304     0.803183  Biso 1.000000     N
    N   1.0     0.416977     0.396257     0.575243  Biso 1.000000     N
    N   1.0     0.917222     0.396219     0.575053  Biso 1.000000     N
    N   1.0     0.099471     0.401916     0.573917  Biso 1.000000     N
    N   1.0     0.599565     0.404336     0.573574  Biso 1.000000     N
    N   1.0     0.301687     0.101463     0.301329  Biso 1.000000     N
    N   1.0     0.801435     0.101604     0.301264  Biso 1.000000     N
    N   1.0     0.083401     0.105324     0.072772  Biso 1.000000     N
    N   1.0     0.583752     0.105058     0.072596  Biso 1.000000     N
    N   1.0     0.401230     0.097202     0.071142  Biso 1.000000     N
    N   1.0     0.900883     0.097609     0.071074  Biso 1.000000     N
    N   1.0     0.299801     0.600555     0.196763  Biso 1.000000     N
    N   1.0     0.799658     0.600696     0.196564  Biso 1.000000     N
    N   1.0     0.084197     0.606029     0.425315  Biso 1.000000     N
    N   1.0     0.584235     0.606699     0.425253  Biso 1.000000     N
    N   1.0     0.401631     0.598483     0.426729  Biso 1.000000     N
    N   1.0     0.901724     0.598679     0.426502  Biso 1.000000     N
    N   1.0     0.195825     0.899114     0.698729  Biso 1.000000     N
    N   1.0     0.700278     0.902341     0.697846  Biso 1.000000     N
    N   1.0     0.415996     0.896227     0.927014  Biso 1.000000     N
    N   1.0     0.916367     0.896803     0.927323  Biso 1.000000     N
    N   1.0     0.098917     0.904865     0.929086  Biso 1.000000     N
    N   1.0     0.598681     0.905241     0.928624  Biso 1.000000     N
    O   1.0     0.267065     0.393916     0.682995  Biso 1.000000     O
    O   1.0     0.770206     0.395287     0.682851  Biso 1.000000     O
    O   1.0     0.218249     0.253965     0.636927  Biso 1.000000     O
    O   1.0     0.714639     0.257188     0.636627  Biso 1.000000     O
    O   1.0     0.292651     0.055919     0.930554  Biso 1.000000     O
    O   1.0     0.793604     0.056425     0.928524  Biso 1.000000     O
    O   1.0     0.233526     0.172374     0.975226  Biso 1.000000     O
    O   1.0     0.733523     0.171606     0.974224  Biso 1.000000     O
    O   1.0     0.251606     0.464116     0.832200  Biso 1.000000     O
    O   1.0     0.746779     0.463870     0.834416  Biso 1.000000     O
    O   1.0     0.133016     0.410291     0.775847  Biso 1.000000     O
    O   1.0     0.632946     0.410796     0.773371  Biso 1.000000     O
    O   1.0     0.229584     0.109013     0.181485  Biso 1.000000     O
    O   1.0     0.729743     0.108257     0.181501  Biso 1.000000     O
    O   1.0     0.288859     0.246167     0.136401  Biso 1.000000     O
    O   1.0     0.785758     0.246109     0.136069  Biso 1.000000     O
    O   1.0     0.207641     0.445333     0.431652  Biso 1.000000     O
    O   1.0     0.707949     0.445912     0.431404  Biso 1.000000     O
    O   1.0     0.269449     0.330972     0.475167  Biso 1.000000     O
    O   1.0     0.769915     0.331688     0.474911  Biso 1.000000     O
    O   1.0     0.255629     0.039924     0.333485  Biso 1.000000     O
    O   1.0     0.755406     0.040101     0.333464  Biso 1.000000     O
    O   1.0     0.366872     0.090175     0.269588  Biso 1.000000     O
    O   1.0     0.866800     0.090383     0.269711  Biso 1.000000     O
    O   1.0     0.230948     0.607326     0.317276  Biso 1.000000     O
    O   1.0     0.729949     0.608747     0.317114  Biso 1.000000     O
    O   1.0     0.285764     0.745813     0.363354  Biso 1.000000     O
    O   1.0     0.788692     0.746427     0.362652  Biso 1.000000     O
    O   1.0     0.206639     0.945605     0.071533  Biso 1.000000     O
    O   1.0     0.707552     0.945220     0.069411  Biso 1.000000     O
    O   1.0     0.266536     0.830443     0.025634  Biso 1.000000     O
    O   1.0     0.766213     0.828539     0.024606  Biso 1.000000     O
    O   1.0     0.252318     0.538674     0.165408  Biso 1.000000     O
    O   1.0     0.752174     0.538736     0.165280  Biso 1.000000     O
    O   1.0     0.366542     0.589877     0.226492  Biso 1.000000     O
    O   1.0     0.866184     0.589951     0.226540  Biso 1.000000     O
    O   1.0     0.269600     0.892873     0.818483  Biso 1.000000     O
    O   1.0     0.770225     0.894430     0.818261  Biso 1.000000     O
    O   1.0     0.211236     0.755511     0.863737  Biso 1.000000     O
    O   1.0     0.711234     0.757037     0.863111  Biso 1.000000     O
    O   1.0     0.292389     0.555995     0.568562  Biso 1.000000     O
    O   1.0     0.792821     0.557123     0.568421  Biso 1.000000     O
    O   1.0     0.233019     0.671962     0.524927  Biso 1.000000     O
    O   1.0     0.733054     0.672592     0.524496  Biso 1.000000     O
    O   1.0     0.240981     0.961006     0.666357  Biso 1.000000     O
    O   1.0     0.747905     0.963848     0.666584  Biso 1.000000     O
    O   1.0     0.130436     0.909517     0.730555  Biso 1.000000     O
    O   1.0     0.633907     0.913761     0.728188  Biso 1.000000     O
   Cd   1.0     0.255801     0.391848     0.571795  Biso 1.000000    Cd
   Cd   1.0     0.755995     0.393375     0.571333  Biso 1.000000    Cd
   Cd   1.0     0.244945     0.109272     0.070595  Biso 1.000000    Cd
   Cd   1.0     0.744775     0.109435     0.070106  Biso 1.000000    Cd
   Cd   1.0     0.245264     0.609270     0.428725  Biso 1.000000    Cd
   Cd   1.0     0.745521     0.610049     0.428236  Biso 1.000000    Cd
   Cd   1.0     0.254754     0.892016     0.929721  Biso 1.000000    Cd
   Cd   1.0     0.754888     0.892800     0.929469  Biso 1.000000    Cd
