#======================================================================

# CRYSTAL DATA

#----------------------------------------------------------------------

data_VESTA_phase_1


_pd_phase_name                         MOF
_cell_length_a                         14.97300
_cell_length_b                         14.96800
_cell_length_c                         18.45500
_cell_angle_alpha                      76.85300
_cell_angle_beta                       76.77200
_cell_angle_gamma                      70.05900
_symmetry_space_group_name_H-M         "P 1"
_symmetry_Int_Tables_number            1

loop_
_symmetry_equiv_pos_as_xyz
   "x, y, z"

loop_
   _atom_site_label
   _atom_site_occupancy
   _atom_site_fract_x
   _atom_site_fract_y
   _atom_site_fract_z
   _atom_site_adp_type
   _atom_site_B_iso_or_equiv
   _atom_site_type_symbol
    H   1.0     0.422047     0.972122     0.778211  Biso 1.000000     H
    H   1.0     0.485369     0.081340     0.749373  Biso 1.000000     H
    H   1.0     0.492487     0.247934     0.707708  Biso 1.000000     H
    H   1.0     0.367277     0.310601     0.931465  Biso 1.000000     H
    H   1.0     0.350872     0.147595     0.972095  Biso 1.000000     H
    H   1.0     0.867986     0.547512     0.097396  Biso 1.000000     H
    H   1.0     0.718644     0.527966     0.080167  Biso 1.000000     H
    H   1.0     0.864459     0.412571     0.876909  Biso 1.000000     H
    H   1.0     0.015152     0.430894     0.892934  Biso 1.000000     H
    H   1.0     0.414301     0.999615     0.000000  Biso 1.000000     H
    H   1.0     0.429176     0.826752     0.047692  Biso 1.000000     H
    H   1.0     0.444104     0.797542     0.818860  Biso 1.000000     H
    H   1.0     0.027439     0.578736     0.721686  Biso 1.000000     H
    H   1.0     0.918763     0.514313     0.750329  Biso 1.000000     H
    H   1.0     0.752239     0.506906     0.792030  Biso 1.000000     H
    H   1.0     0.689412     0.633293     0.568676  Biso 1.000000     H
    H   1.0     0.852373     0.649909     0.528056  Biso 1.000000     H
    H   1.0     0.453477     0.131396     0.402044  Biso 1.000000     H
    H   1.0     0.472773     0.280969     0.419271  Biso 1.000000     H
    H   1.0     0.586578     0.136057     0.622999  Biso 1.000000     H
    H   1.0     0.568134     0.985265     0.607147  Biso 1.000000     H
    H   1.0     0.000621     0.585560     0.492279  Biso 1.000000     H
    H   1.0     0.173570     0.570525     0.452267  Biso 1.000000     H
    H   1.0     0.202107     0.556529     0.681053  Biso 1.000000     H
    H   1.0     0.577021     0.028375     0.222008  Biso 1.000000     H
    H   1.0     0.512510     0.919693     0.250359  Biso 1.000000     H
    H   1.0     0.505225     0.753205     0.292040  Biso 1.000000     H
    H   1.0     0.634337     0.689047     0.069145  Biso 1.000000     H
    H   1.0     0.650639     0.852225     0.028503  Biso 1.000000     H
    H   1.0     0.134248     0.445588     0.906092  Biso 1.000000     H
    H   1.0     0.282958     0.467192     0.922495  Biso 1.000000     H
    H   1.0     0.134190     0.593641     0.120520  Biso 1.000000     H
    H   1.0     0.983252     0.576399     0.103784  Biso 1.000000     H
    H   1.0     0.586391     0.000464    -0.007633  Biso 1.000000     H
    H   1.0     0.571691     0.173316     0.952282  Biso 1.000000     H
    H   1.0     0.555235     0.202932     0.181263  Biso 1.000000     H
    H   1.0     0.972090     0.422127     0.278145  Biso 1.000000     H
    H   1.0     0.080147     0.487596     0.250026  Biso 1.000000     H
    H   1.0     0.246601     0.495098     0.208205  Biso 1.000000     H
    H   1.0     0.311059     0.364957     0.430647  Biso 1.000000     H
    H   1.0     0.147877     0.348517     0.471398  Biso 1.000000     H
    H   1.0     0.555669     0.865559     0.593020  Biso 1.000000     H
    H   1.0     0.533612     0.716851     0.576904  Biso 1.000000     H
    H   1.0     0.404934     0.865782     0.380249  Biso 1.000000     H
    H   1.0     0.422063     0.016851     0.397029  Biso 1.000000     H
    H   1.0     0.999224     0.413571     0.507779  Biso 1.000000     H
    H   1.0     0.826270     0.428471     0.547789  Biso 1.000000     H
    H   1.0     0.797443     0.444134     0.318800  Biso 1.000000     H
    C   1.0     0.425649     0.940697     0.837233  Biso 1.000000     C
    C   1.0     0.418962     0.999374     0.889400  Biso 1.000000     C
    C   1.0     0.417737     0.100798     0.864119  Biso 1.000000     C
    C   1.0     0.456385     0.131883     0.789262  Biso 1.000000     C
    C   1.0     0.461367     0.225205     0.765470  Biso 1.000000     C
    C   1.0     0.430140     0.290337     0.816623  Biso 1.000000     C
    C   1.0     0.390679     0.260794     0.891239  Biso 1.000000     C
    C   1.0     0.383154     0.168144     0.914164  Biso 1.000000     C
    C   1.0     0.443274     0.387759     0.792144  Biso 1.000000     C
    C   1.0     0.954927     0.493070    -0.004247  Biso 1.000000     C
    C   1.0     0.869184     0.518193     0.048224  Biso 1.000000     C
    C   1.0     0.783873     0.507522     0.038982  Biso 1.000000     C
    C   1.0     0.780736     0.471113    -0.023686  Biso 1.000000     C
    C   1.0     0.866033     0.442791     0.924817  Biso 1.000000     C
    C   1.0     0.950947     0.453471     0.934457  Biso 1.000000     C
    C   1.0     0.688899     0.467515    -0.039029  Biso 1.000000     C
    C   1.0     0.418636     0.956776     0.965819  Biso 1.000000     C
    C   1.0     0.427813     0.859398     0.988727  Biso 1.000000     C
    C   1.0     0.439170     0.801026     0.935632  Biso 1.000000     C
    C   1.0     0.436709     0.842997     0.859681  Biso 1.000000     C
    C   1.0     0.543129     0.304999     0.040890  Biso 1.000000     C
    C   1.0     0.059059     0.574919     0.662679  Biso 1.000000     C
    C   1.0     0.000590     0.581330     0.610518  Biso 1.000000     C
    C   1.0     0.899172     0.582534     0.635822  Biso 1.000000     C
    C   1.0     0.868171     0.543508     0.710572  Biso 1.000000     C
    C   1.0     0.774909     0.538348     0.734364  Biso 1.000000     C
    C   1.0     0.709754     0.569858     0.683324  Biso 1.000000     C
    C   1.0     0.739231     0.609683     0.608817  Biso 1.000000     C
    C   1.0     0.831832     0.617354     0.585891  Biso 1.000000     C
    C   1.0     0.612467     0.556420     0.707815  Biso 1.000000     C
    C   1.0     0.506921     0.045010     0.504035  Biso 1.000000     C
    C   1.0     0.482299     0.130494     0.451355  Biso 1.000000     C
    C   1.0     0.492909     0.215887     0.460557  Biso 1.000000     C
    C   1.0     0.528800     0.219299     0.523365  Biso 1.000000     C
    C   1.0     0.556726     0.134226     0.575009  Biso 1.000000     C
    C   1.0     0.546038     0.049256     0.565444  Biso 1.000000     C
    C   1.0     0.532215     0.311231     0.538712  Biso 1.000000     C
    C   1.0     0.043342     0.581433     0.534101  Biso 1.000000     C
    C   1.0     0.140758     0.572122     0.511204  Biso 1.000000     C
    C   1.0     0.198942     0.561011     0.564295  Biso 1.000000     C
    C   1.0     0.156792     0.563737     0.640241  Biso 1.000000     C
    C   1.0     0.694935     0.456834     0.459100  Biso 1.000000     C
    C   1.0     0.573836     0.059726     0.162925  Biso 1.000000     C
    C   1.0     0.580890     0.000959     0.110719  Biso 1.000000     C
    C   1.0     0.581979     0.899580     0.136035  Biso 1.000000     C
    C   1.0     0.542267     0.868896     0.210671  Biso 1.000000     C
    C   1.0     0.537189     0.775609     0.234463  Biso 1.000000     C
    C   1.0     0.569458     0.710134     0.183510  Biso 1.000000     C
    C   1.0     0.610013     0.739253     0.109134  Biso 1.000000     C
    C   1.0     0.617535     0.831913     0.086224  Biso 1.000000     C
    C   1.0     0.556265     0.612755     0.207945  Biso 1.000000     C
    C   1.0     0.045344     0.507144     0.000000  Biso 1.000000     C
    C   1.0     0.132019     0.478511     0.953599  Biso 1.000000     C
    C   1.0     0.217122     0.489800     0.962620  Biso 1.000000     C
    C   1.0     0.219350     0.529526     0.000000  Biso 1.000000     C
    C   1.0     0.133288     0.560916     0.073785  Biso 1.000000     C
    C   1.0     0.048351     0.550413     0.063974  Biso 1.000000     C
    C   1.0     0.311111     0.533204     0.000000  Biso 1.000000     C
    C   1.0     0.581756     0.043409     0.034238  Biso 1.000000     C
    C   1.0     0.572668     0.140775     0.011300  Biso 1.000000     C
    C   1.0     0.560934     0.199254     0.064412  Biso 1.000000     C
    C   1.0     0.562902     0.157395     0.140432  Biso 1.000000     C
    C   1.0     0.456991     0.695296     0.959169  Biso 1.000000     C
    C   1.0     0.940521     0.425544     0.337207  Biso 1.000000     C
    C   1.0     0.999070     0.418689     0.389439  Biso 1.000000     C
    C   1.0     0.100447     0.417636     0.364100  Biso 1.000000     C
    C   1.0     0.131024     0.457661     0.289552  Biso 1.000000     C
    C   1.0     0.224248     0.462905     0.265708  Biso 1.000000     C
    C   1.0     0.289785     0.430384     0.316506  Biso 1.000000     C
    C   1.0     0.260777     0.389501     0.390791  Biso 1.000000     C
    C   1.0     0.168153     0.381858     0.413758  Biso 1.000000     C
    C   1.0     0.387003     0.443948     0.291983  Biso 1.000000     C
    C   1.0     0.492733     0.954588     0.495468  Biso 1.000000     C
    C   1.0     0.522036     0.867845     0.545942  Biso 1.000000     C
    C   1.0     0.510575     0.782740     0.537037  Biso 1.000000     C
    C   1.0     0.470187     0.780568     0.476267  Biso 1.000000     C
    C   1.0     0.438169     0.866684     0.426653  Biso 1.000000     C
    C   1.0     0.448689     0.951661     0.436433  Biso 1.000000     C
    C   1.0     0.466566     0.688774     0.460834  Biso 1.000000     C
    C   1.0     0.956413     0.418063     0.465908  Biso 1.000000     C
    C   1.0     0.859002     0.427263     0.488802  Biso 1.000000     C
    C   1.0     0.800727     0.438851     0.435656  Biso 1.000000     C
    C   1.0     0.842820     0.436591     0.359654  Biso 1.000000     C
    C   1.0     0.304710     0.542958     0.540762  Biso 1.000000     C
    O   1.0     0.519625     0.356068     0.093458  Biso 1.000000     O
    O   1.0     0.465621     0.417004     0.722360  Biso 1.000000     O
    O   1.0     0.609566     0.494542     0.007011  Biso 1.000000     O
    O   1.0     0.432056     0.437233     0.843684  Biso 1.000000     O
    O   1.0     0.449849     0.661734     0.000000  Biso 1.000000     O
    O   1.0     0.687952     0.442511     0.899792  Biso 1.000000     O
    O   1.0     0.644078     0.480435     0.406482  Biso 1.000000     O
    O   1.0     0.583550     0.533363     0.777571  Biso 1.000000     O
    O   1.0     0.505887     0.390302     0.492417  Biso 1.000000     O
    O   1.0     0.562842     0.568002     0.656362  Biso 1.000000     O
    O   1.0     0.338428     0.549930     0.470550  Biso 1.000000     O
    O   1.0     0.556368     0.312459     0.600133  Biso 1.000000     O
    O   1.0     0.480365     0.644187     0.906630  Biso 1.000000     O
    O   1.0     0.533350     0.583839     0.277712  Biso 1.000000     O
    O   1.0     0.390644     0.505515     0.993446  Biso 1.000000     O
    O   1.0     0.567939     0.563006     0.156494  Biso 1.000000     O
    O   1.0     0.550403     0.338607    -0.029332  Biso 1.000000     O
    O   1.0     0.311871     0.558788     0.100142  Biso 1.000000     O
    O   1.0     0.355673     0.519642     0.593305  Biso 1.000000     O
    O   1.0     0.415504     0.467604     0.222232  Biso 1.000000     O
    O   1.0     0.494191     0.609315     0.506535  Biso 1.000000     O
    O   1.0     0.436941     0.431946     0.343304  Biso 1.000000     O
    O   1.0     0.661111     0.449569     0.529323  Biso 1.000000     O
    O   1.0     0.441174     0.687914     0.399866  Biso 1.000000     O
    Y   1.0     0.478622     0.512550     0.102361  Biso 1.000000     Y
    Y   1.0     0.487681     0.521132     0.397493  Biso 1.000000     Y
    Y   1.0     0.521298     0.487821     0.897678  Biso 1.000000     Y
    Y   1.0     0.511856     0.478975     0.602341  Biso 1.000000     Y
