#======================================================================

# CRYSTAL DATA

#----------------------------------------------------------------------

data_VESTA_phase_1


_pd_phase_name                         MOF
_cell_length_a                         16.87600
_cell_length_b                         14.51200
_cell_length_c                         15.82000
_cell_angle_alpha                      90.02300
_cell_angle_beta                       89.92100
_cell_angle_gamma                      90.03400
_symmetry_space_group_name_H-M         "P 1"
_symmetry_Int_Tables_number            1

loop_
_symmetry_equiv_pos_as_xyz
   "x, y, z"

loop_
   _atom_site_label
   _atom_site_occupancy
   _atom_site_fract_x
   _atom_site_fract_y
   _atom_site_fract_z
   _atom_site_adp_type
   _atom_site_B_iso_or_equiv
   _atom_site_type_symbol
    H   1.0     0.190893     0.917481     0.754231  Biso 1.000000     H
    H   1.0     0.690890     0.917479     0.754232  Biso 1.000000     H
    H   1.0     0.380459     0.115692     0.736316  Biso 1.000000     H
    H   1.0     0.880455     0.115694     0.736331  Biso 1.000000     H
    H   1.0     0.277930     0.235677     0.703605  Biso 1.000000     H
    H   1.0     0.777927     0.235677     0.703612  Biso 1.000000     H
    H   1.0     0.047862     0.824126     0.094305  Biso 1.000000     H
    H   1.0     0.547852     0.824140     0.094309  Biso 1.000000     H
    H   1.0     0.347066     0.642665     0.116373  Biso 1.000000     H
    H   1.0     0.847066     0.642665     0.116372  Biso 1.000000     H
    H   1.0     0.328596     0.657441     0.960149  Biso 1.000000     H
    H   1.0     0.828593     0.657447     0.960149  Biso 1.000000     H
    H   1.0     0.039305     0.089617     0.723924  Biso 1.000000     H
    H   1.0     0.539300     0.089615     0.723923  Biso 1.000000     H
    H   1.0     0.059700     0.973489     0.731546  Biso 1.000000     H
    H   1.0     0.559699     0.973488     0.731544  Biso 1.000000     H
    H   1.0     0.536938     0.836536     0.862732  Biso 1.000000     H
    H   1.0     0.000000     0.836529     0.862729  Biso 1.000000     H
    H   1.0     0.082596     0.870960     0.955518  Biso 1.000000     H
    H   1.0     0.582585     0.870976     0.955522  Biso 1.000000     H
    H   1.0     0.190916     0.082450     0.245599  Biso 1.000000     H
    H   1.0     0.690916     0.082450     0.245600  Biso 1.000000     H
    H   1.0     0.380367     0.884445     0.263588  Biso 1.000000     H
    H   1.0     0.880367     0.884444     0.263586  Biso 1.000000     H
    H   1.0     0.277675     0.764302     0.296200  Biso 1.000000     H
    H   1.0     0.777675     0.764302     0.296200  Biso 1.000000     H
    H   1.0     0.047772     0.175875     0.905501  Biso 1.000000     H
    H   1.0     0.547769     0.175873     0.905501  Biso 1.000000     H
    H   1.0     0.347462     0.357756     0.884031  Biso 1.000000     H
    H   1.0     0.847466     0.357764     0.884032  Biso 1.000000     H
    H   1.0     0.329062     0.343196     0.040356  Biso 1.000000     H
    H   1.0     0.829065     0.343200     0.040358  Biso 1.000000     H
    H   1.0     0.039202     0.910134     0.275957  Biso 1.000000     H
    H   1.0     0.539201     0.910134     0.275959  Biso 1.000000     H
    H   1.0     0.059590     0.026297     0.268320  Biso 1.000000     H
    H   1.0     0.559590     0.026297     0.268322  Biso 1.000000     H
    H   1.0     0.536894     0.163602     0.137133  Biso 1.000000     H
    H   1.0     0.000000     0.163603     0.137133  Biso 1.000000     H
    H   1.0     0.082379     0.128937     0.044185  Biso 1.000000     H
    H   1.0     0.582377     0.128936     0.044186  Biso 1.000000     H
    H   1.0     0.309112     0.582466     0.254604  Biso 1.000000     H
    H   1.0     0.809111     0.582469     0.254589  Biso 1.000000     H
    H   1.0     0.119547     0.384313     0.236328  Biso 1.000000     H
    H   1.0     0.619546     0.384315     0.236320  Biso 1.000000     H
    H   1.0     0.222186     0.264240     0.203805  Biso 1.000000     H
    H   1.0     0.722187     0.264240     0.203808  Biso 1.000000     H
    H   1.0     0.452147     0.675758     0.594488  Biso 1.000000     H
    H   1.0     0.952144     0.675760     0.594487  Biso 1.000000     H
    H   1.0     0.152695     0.857604     0.615988  Biso 1.000000     H
    H   1.0     0.652703     0.857591     0.615992  Biso 1.000000     H
    H   1.0     0.171077     0.842914     0.459664  Biso 1.000000     H
    H   1.0     0.671082     0.842906     0.459668  Biso 1.000000     H
    H   1.0     0.460778     0.410241     0.224332  Biso 1.000000     H
    H   1.0     0.960774     0.410241     0.224335  Biso 1.000000     H
    H   1.0     0.440396     0.526418     0.231915  Biso 1.000000     H
    H   1.0     0.940397     0.526419     0.231912  Biso 1.000000     H
    H   1.0    -0.037053     0.663503     0.362825  Biso 1.000000     H
    H   1.0     0.462946     0.663506     0.362825  Biso 1.000000     H
    H   1.0     0.417390     0.628893     0.455738  Biso 1.000000     H
    H   1.0     0.917388     0.628894     0.455737  Biso 1.000000     H
    H   1.0     0.309042     0.417494     0.745920  Biso 1.000000     H
    H   1.0     0.809042     0.417494     0.745920  Biso 1.000000     H
    H   1.0     0.119584     0.615611     0.763675  Biso 1.000000     H
    H   1.0     0.619583     0.615608     0.763683  Biso 1.000000     H
    H   1.0     0.222181     0.735733     0.796424  Biso 1.000000     H
    H   1.0     0.722181     0.735732     0.796427  Biso 1.000000     H
    H   1.0     0.452265     0.324046     0.405785  Biso 1.000000     H
    H   1.0     0.952269     0.324052     0.405783  Biso 1.000000     H
    H   1.0     0.152713     0.142380     0.383479  Biso 1.000000     H
    H   1.0     0.652712     0.142380     0.383478  Biso 1.000000     H
    H   1.0     0.171198     0.156993     0.539723  Biso 1.000000     H
    H   1.0     0.671198     0.156995     0.539722  Biso 1.000000     H
    H   1.0     0.460692     0.589814     0.776341  Biso 1.000000     H
    H   1.0     0.960690     0.589814     0.776339  Biso 1.000000     H
    H   1.0     0.440289     0.473642     0.768696  Biso 1.000000     H
    H   1.0     0.940290     0.473641     0.768694  Biso 1.000000     H
    H   1.0    -0.036746     0.336412     0.637357  Biso 1.000000     H
    H   1.0     0.463252     0.336408     0.637359  Biso 1.000000     H
    H   1.0     0.417714     0.370992     0.544589  Biso 1.000000     H
    H   1.0     0.917718     0.370999     0.544587  Biso 1.000000     H
    C   1.0     0.157438     0.056792     0.721503  Biso 1.000000     C
    C   1.0     0.657439     0.056787     0.721492  Biso 1.000000     C
    C   1.0     0.212500     0.986762     0.741746  Biso 1.000000     C
    C   1.0     0.712500     0.986759     0.741747  Biso 1.000000     C
    C   1.0     0.292401     0.007134     0.747270  Biso 1.000000     C
    C   1.0     0.792397     0.007137     0.747289  Biso 1.000000     C
    C   1.0     0.317981     0.098131     0.732355  Biso 1.000000     C
    C   1.0     0.817979     0.098130     0.732354  Biso 1.000000     C
    C   1.0     0.261754     0.163826     0.713625  Biso 1.000000     C
    C   1.0     0.761752     0.163825     0.713625  Biso 1.000000     C
    C   1.0     0.351651     0.933244     0.770302  Biso 1.000000     C
    C   1.0     0.851651     0.933239     0.770286  Biso 1.000000     C
    C   1.0     0.485704     0.792234     0.977566  Biso 1.000000     C
    C   1.0     0.985707     0.792227     0.977563  Biso 1.000000     C
    C   1.0     0.498583     0.786991     0.065835  Biso 1.000000     C
    C   1.0     0.998585     0.786988     0.065833  Biso 1.000000     C
    C   1.0     0.449707     0.733807     0.116228  Biso 1.000000     C
    C   1.0     0.949716     0.733794     0.116224  Biso 1.000000     C
    C   1.0     0.386431     0.685433     0.078662  Biso 1.000000     C
    C   1.0     0.886428     0.685438     0.078662  Biso 1.000000     C
    C   1.0     0.376286     0.693594     0.992641  Biso 1.000000     C
    C   1.0     0.876286     0.693595     0.992640  Biso 1.000000     C
    C   1.0     0.466602     0.725542     0.209589  Biso 1.000000     C
    C   1.0     0.966599     0.725545     0.209589  Biso 1.000000     C
    C   1.0     0.157312     0.943113     0.278339  Biso 1.000000     C
    C   1.0     0.657313     0.943113     0.278343  Biso 1.000000     C
    C   1.0     0.212442     0.013190     0.258126  Biso 1.000000     C
    C   1.0     0.712443     0.013190     0.258128  Biso 1.000000     C
    C   1.0     0.292350     0.992866     0.252603  Biso 1.000000     C
    C   1.0     0.792350     0.992865     0.252599  Biso 1.000000     C
    C   1.0     0.317881     0.901920     0.267547  Biso 1.000000     C
    C   1.0     0.817881     0.901920     0.267549  Biso 1.000000     C
    C   1.0     0.261589     0.836151     0.286200  Biso 1.000000     C
    C   1.0     0.761589     0.836151     0.286202  Biso 1.000000     C
    C   1.0     0.351676     0.066814     0.229671  Biso 1.000000     C
    C   1.0     0.851676     0.066815     0.229676  Biso 1.000000     C
    C   1.0     0.485775     0.207984     0.022450  Biso 1.000000     C
    C   1.0     0.985776     0.207987     0.022451  Biso 1.000000     C
    C   1.0     0.498605     0.213121     0.934139  Biso 1.000000     C
    C   1.0     0.998606     0.213122     0.934139  Biso 1.000000     C
    C   1.0     0.449855     0.266393     0.883910  Biso 1.000000     C
    C   1.0     0.949859     0.266400     0.883911  Biso 1.000000     C
    C   1.0     0.386716     0.314931     0.921642  Biso 1.000000     C
    C   1.0     0.886718     0.314934     0.921643  Biso 1.000000     C
    C   1.0     0.376625     0.306908     0.007703  Biso 1.000000     C
    C   1.0     0.876628     0.306912     0.007705  Biso 1.000000     C
    C   1.0     0.466663     0.274501     0.790493  Biso 1.000000     C
    C   1.0     0.966663     0.274503     0.790493  Biso 1.000000     C
    C   1.0     0.342646     0.443116     0.221858  Biso 1.000000     C
    C   1.0     0.842649     0.443114     0.221862  Biso 1.000000     C
    C   1.0     0.287540     0.513187     0.242063  Biso 1.000000     C
    C   1.0     0.787542     0.513185     0.242062  Biso 1.000000     C
    C   1.0     0.207615     0.492810     0.247464  Biso 1.000000     C
    C   1.0     0.707613     0.492819     0.247431  Biso 1.000000     C
    C   1.0     0.182048     0.401831     0.232467  Biso 1.000000     C
    C   1.0     0.682049     0.401829     0.232480  Biso 1.000000     C
    C   1.0     0.238330     0.336098     0.213845  Biso 1.000000     C
    C   1.0     0.738330     0.336098     0.213849  Biso 1.000000     C
    C   1.0     0.148325     0.566785     0.270332  Biso 1.000000     C
    C   1.0     0.648327     0.566779     0.270352  Biso 1.000000     C
    C   1.0     0.014160     0.707816     0.477536  Biso 1.000000     C
    C   1.0     0.514161     0.707815     0.477538  Biso 1.000000     C
    C   1.0     0.001344     0.712994     0.565851  Biso 1.000000     C
    C   1.0     0.501341     0.712999     0.565852  Biso 1.000000     C
    C   1.0     0.050181     0.766269     0.616092  Biso 1.000000     C
    C   1.0     0.550191     0.766254     0.616097  Biso 1.000000     C
    C   1.0     0.113377     0.814771     0.578371  Biso 1.000000     C
    C   1.0     0.613378     0.814770     0.578373  Biso 1.000000     C
    C   1.0     0.123462     0.806668     0.492309  Biso 1.000000     C
    C   1.0     0.623467     0.806661     0.492312  Biso 1.000000     C
    C   1.0     0.033354     0.774483     0.709499  Biso 1.000000     C
    C   1.0     0.533351     0.774485     0.709500  Biso 1.000000     C
    C   1.0     0.342565     0.556874     0.778685  Biso 1.000000     C
    C   1.0     0.842568     0.556875     0.778678  Biso 1.000000     C
    C   1.0     0.287483     0.486772     0.758417  Biso 1.000000     C
    C   1.0     0.787484     0.486773     0.758415  Biso 1.000000     C
    C   1.0     0.207605     0.507135     0.752778  Biso 1.000000     C
    C   1.0     0.707604     0.507131     0.752790  Biso 1.000000     C
    C   1.0     0.182049     0.598105     0.767721  Biso 1.000000     C
    C   1.0     0.682049     0.598104     0.767718  Biso 1.000000     C
    C   1.0     0.238292     0.663871     0.786446  Biso 1.000000     C
    C   1.0     0.738292     0.663870     0.786445  Biso 1.000000     C
    C   1.0     0.148324     0.433181     0.729736  Biso 1.000000     C
    C   1.0     0.648325     0.433183     0.729727  Biso 1.000000     C
    C   1.0     0.014373     0.292021     0.522478  Biso 1.000000     C
    C   1.0     0.514370     0.292019     0.522479  Biso 1.000000     C
    C   1.0     0.001473     0.286828     0.434201  Biso 1.000000     C
    C   1.0     0.501469     0.286824     0.434202  Biso 1.000000     C
    C   1.0     0.050255     0.233647     0.383726  Biso 1.000000     C
    C   1.0     0.550249     0.233642     0.383727  Biso 1.000000     C
    C   1.0     0.113419     0.185151     0.421243  Biso 1.000000     C
    C   1.0     0.613418     0.185152     0.421243  Biso 1.000000     C
    C   1.0     0.123581     0.193232     0.507279  Biso 1.000000     C
    C   1.0     0.623581     0.193233     0.507279  Biso 1.000000     C
    C   1.0     0.033357     0.225489     0.290340  Biso 1.000000     C
    C   1.0     0.533357     0.225493     0.290339  Biso 1.000000     C
    N   1.0     0.182831     0.144881     0.707337  Biso 1.000000     N
    N   1.0     0.682828     0.144880     0.707342  Biso 1.000000     N
    N   1.0     0.078932     0.037545     0.714036  Biso 1.000000     N
    N   1.0     0.578931     0.037546     0.714038  Biso 1.000000     N
    N   1.0     0.423905     0.745659     0.941973  Biso 1.000000     N
    N   1.0     0.923905     0.745658     0.941971  Biso 1.000000     N
    N   1.0     0.033315     0.844482     0.927853  Biso 1.000000     N
    N   1.0     0.533308     0.844491     0.927855  Biso 1.000000     N
    N   1.0     0.182668     0.855059     0.292458  Biso 1.000000     N
    N   1.0     0.682668     0.855059     0.292459  Biso 1.000000     N
    N   1.0     0.078794     0.962277     0.285840  Biso 1.000000     N
    N   1.0     0.578794     0.962277     0.285842  Biso 1.000000     N
    N   1.0     0.424117     0.254735     0.058203  Biso 1.000000     N
    N   1.0     0.924120     0.254738     0.058205  Biso 1.000000     N
    N   1.0     0.033225     0.155627     0.072019  Biso 1.000000     N
    N   1.0     0.533222     0.155624     0.072020  Biso 1.000000     N
    N   1.0     0.317278     0.355025     0.207687  Biso 1.000000     N
    N   1.0     0.817277     0.355025     0.207685  Biso 1.000000     N
    N   1.0     0.421182     0.462317     0.214475  Biso 1.000000     N
    N   1.0     0.921183     0.462319     0.214469  Biso 1.000000     N
    N   1.0     0.075872     0.754529     0.441788  Biso 1.000000     N
    N   1.0     0.575873     0.754527     0.441790  Biso 1.000000     N
    N   1.0     0.466605     0.655510     0.427927  Biso 1.000000     N
    N   1.0     0.966604     0.655508     0.427927  Biso 1.000000     N
    N   1.0     0.317191     0.644953     0.792776  Biso 1.000000     N
    N   1.0     0.817191     0.644952     0.792777  Biso 1.000000     N
    N   1.0     0.421060     0.537698     0.786238  Biso 1.000000     N
    N   1.0     0.921061     0.537696     0.786237  Biso 1.000000     N
    N   1.0     0.076080     0.245343     0.558011  Biso 1.000000     N
    N   1.0     0.576078     0.245342     0.558011  Biso 1.000000     N
    N   1.0     0.466893     0.344340     0.572237  Biso 1.000000     N
    N   1.0     0.966897     0.344345     0.572235  Biso 1.000000     N
    O   1.0     0.423841     0.949355     0.766772  Biso 1.000000     O
    O   1.0     0.923841     0.949356     0.766776  Biso 1.000000     O
    O   1.0     0.319665     0.855163     0.792751  Biso 1.000000     O
    O   1.0     0.819663     0.855166     0.792754  Biso 1.000000     O
    O   1.0     0.023810     0.777158     0.236561  Biso 1.000000     O
    O   1.0     0.523808     0.777160     0.236562  Biso 1.000000     O
    O   1.0     0.426392     0.671717     0.254064  Biso 1.000000     O
    O   1.0     0.926393     0.671714     0.254061  Biso 1.000000     O
    O   1.0     0.423846     0.050744     0.233206  Biso 1.000000     O
    O   1.0     0.923847     0.050744     0.233205  Biso 1.000000     O
    O   1.0     0.319729     0.144845     0.207259  Biso 1.000000     O
    O   1.0     0.819728     0.144844     0.207258  Biso 1.000000     O
    O   1.0     0.023758     0.222798     0.763338  Biso 1.000000     O
    O   1.0     0.523757     0.222797     0.763337  Biso 1.000000     O
    O   1.0     0.426494     0.328334     0.746172  Biso 1.000000     O
    O   1.0     0.926494     0.328335     0.746171  Biso 1.000000     O
    O   1.0     0.076139     0.550702     0.266786  Biso 1.000000     O
    O   1.0     0.576141     0.550703     0.266780  Biso 1.000000     O
    O   1.0     0.180293     0.644875     0.292737  Biso 1.000000     O
    O   1.0     0.680292     0.644879     0.292732  Biso 1.000000     O
    O   1.0     0.476201     0.722808     0.736649  Biso 1.000000     O
    O   1.0     0.976200     0.722810     0.736649  Biso 1.000000     O
    O   1.0     0.073554     0.828373     0.753828  Biso 1.000000     O
    O   1.0     0.573555     0.828369     0.753832  Biso 1.000000     O
    O   1.0     0.076148     0.449281     0.733219  Biso 1.000000     O
    O   1.0     0.576149     0.449281     0.733222  Biso 1.000000     O
    O   1.0     0.180310     0.355141     0.707251  Biso 1.000000     O
    O   1.0     0.680309     0.355138     0.707253  Biso 1.000000     O
    O   1.0     0.476221     0.277166     0.263449  Biso 1.000000     O
    O   1.0     0.976223     0.277167     0.263449  Biso 1.000000     O
    O   1.0     0.073539     0.171757     0.245756  Biso 1.000000     O
    O   1.0     0.573537     0.171756     0.245757  Biso 1.000000     O
   Zn   1.0     0.391803     0.753903     0.818554  Biso 1.000000    Zn
   Zn   1.0     0.891801     0.753904     0.818553  Biso 1.000000    Zn
   Zn   1.0     0.391891     0.246216     0.181575  Biso 1.000000    Zn
   Zn   1.0     0.891891     0.246216     0.181577  Biso 1.000000    Zn
   Zn   1.0     0.108082     0.746151     0.318414  Biso 1.000000    Zn
   Zn   1.0     0.608081     0.746153     0.318414  Biso 1.000000    Zn
   Zn   1.0     0.108216     0.253765     0.681438  Biso 1.000000    Zn
   Zn   1.0     0.608215     0.253764     0.681436  Biso 1.000000    Zn
