#======================================================================

# CRYSTAL DATA

#----------------------------------------------------------------------

data_VESTA_phase_1


_pd_phase_name                         MOF
_cell_length_a                         20.74700
_cell_length_b                         26.34100
_cell_length_c                         19.99400
_cell_angle_alpha                      90.02200
_cell_angle_beta                       90.00200
_cell_angle_gamma                      90.30700
_symmetry_space_group_name_H-M         "P 1"
_symmetry_Int_Tables_number            1

loop_
_symmetry_equiv_pos_as_xyz
   "x, y, z"

loop_
   _atom_site_label
   _atom_site_occupancy
   _atom_site_fract_x
   _atom_site_fract_y
   _atom_site_fract_z
   _atom_site_adp_type
   _atom_site_B_iso_or_equiv
   _atom_site_type_symbol
    H   1.0     0.137498     0.268980     0.992156  Biso 1.000000     H
    H   1.0     0.137520     0.768954     0.993284  Biso 1.000000     H
    H   1.0     0.637505     0.268980     0.992157  Biso 1.000000     H
    H   1.0     0.637527     0.768954     0.993285  Biso 1.000000     H
    H   1.0     0.186840     0.279873     0.878406  Biso 1.000000     H
    H   1.0     0.186638     0.778813     0.879306  Biso 1.000000     H
    H   1.0     0.686845     0.279873     0.878406  Biso 1.000000     H
    H   1.0     0.686643     0.778813     0.879306  Biso 1.000000     H
    H   1.0     0.100775     0.280799     0.874060  Biso 1.000000     H
    H   1.0     0.100574     0.779764     0.875087  Biso 1.000000     H
    H   1.0     0.600780     0.280798     0.874062  Biso 1.000000     H
    H   1.0     0.600579     0.779763     0.875088  Biso 1.000000     H
    H   1.0     0.146044     0.338713     0.868729  Biso 1.000000     H
    H   1.0     0.145906     0.837593     0.868795  Biso 1.000000     H
    H   1.0     0.646049     0.338712     0.868730  Biso 1.000000     H
    H   1.0     0.645911     0.837593     0.868796  Biso 1.000000     H
    H   1.0     0.021123     0.013190     0.200920  Biso 1.000000     H
    H   1.0     0.021228     0.513324     0.200858  Biso 1.000000     H
    H   1.0     0.521129     0.013189     0.200920  Biso 1.000000     H
    H   1.0     0.521233     0.513324     0.200858  Biso 1.000000     H
    H   1.0     0.215682     0.458510     0.207692  Biso 1.000000     H
    H   1.0     0.215810     0.958864     0.207491  Biso 1.000000     H
    H   1.0     0.715688     0.458512     0.207691  Biso 1.000000     H
    H   1.0     0.715816     0.958864     0.207491  Biso 1.000000     H
    H   1.0     0.224635     0.486783     0.327335  Biso 1.000000     H
    H   1.0     0.224781     0.987126     0.327139  Biso 1.000000     H
    H   1.0     0.724643     0.486787     0.327333  Biso 1.000000     H
    H   1.0     0.724787     0.987126     0.327139  Biso 1.000000     H
    H   1.0     0.029850     0.040903     0.320553  Biso 1.000000     H
    H   1.0     0.029933     0.541048     0.320490  Biso 1.000000     H
    H   1.0     0.529855     0.040902     0.320553  Biso 1.000000     H
    H   1.0     0.529940     0.541050     0.320489  Biso 1.000000     H
    H   1.0     0.112527     0.231006     0.493375  Biso 1.000000     H
    H   1.0     0.112541     0.730985     0.492252  Biso 1.000000     H
    H   1.0     0.612534     0.231006     0.493374  Biso 1.000000     H
    H   1.0     0.612548     0.730985     0.492253  Biso 1.000000     H
    H   1.0     0.063337     0.221213     0.379392  Biso 1.000000     H
    H   1.0     0.063170     0.720128     0.378486  Biso 1.000000     H
    H   1.0     0.563342     0.221213     0.379391  Biso 1.000000     H
    H   1.0     0.563176     0.720130     0.378488  Biso 1.000000     H
    H   1.0     0.149400     0.220243     0.375155  Biso 1.000000     H
    H   1.0     0.149234     0.719190     0.374145  Biso 1.000000     H
    H   1.0     0.649406     0.220242     0.375153  Biso 1.000000     H
    H   1.0     0.649240     0.719191     0.374146  Biso 1.000000     H
    H   1.0     0.104048     0.162428     0.368766  Biso 1.000000     H
    H   1.0     0.103952     0.661285     0.368726  Biso 1.000000     H
    H   1.0     0.604052     0.162428     0.368765  Biso 1.000000     H
    H   1.0     0.603957     0.661286     0.368726  Biso 1.000000     H
    H   1.0     0.228732     0.486635     0.700821  Biso 1.000000     H
    H   1.0     0.228826     0.986730     0.700865  Biso 1.000000     H
    H   1.0     0.728737     0.486633     0.700820  Biso 1.000000     H
    H   1.0     0.728832     0.986731     0.700865  Biso 1.000000     H
    H   1.0     0.034183     0.041148     0.707544  Biso 1.000000     H
    H   1.0     0.034342     0.541580     0.707795  Biso 1.000000     H
    H   1.0     0.534189     0.041149     0.707545  Biso 1.000000     H
    H   1.0     0.534347     0.541580     0.707795  Biso 1.000000     H
    H   1.0     0.025214     0.012857     0.827145  Biso 1.000000     H
    H   1.0     0.025399     0.513282     0.827393  Biso 1.000000     H
    H   1.0     0.525219     0.012857     0.827145  Biso 1.000000     H
    H   1.0     0.525405     0.513281     0.827393  Biso 1.000000     H
    H   1.0     0.220039     0.458889     0.820413  Biso 1.000000     H
    H   1.0     0.220103     0.958991     0.820455  Biso 1.000000     H
    H   1.0     0.720044     0.458887     0.820412  Biso 1.000000     H
    H   1.0     0.720108     0.958991     0.820455  Biso 1.000000     H
    H   1.0     0.361406     0.020476     0.506893  Biso 1.000000     H
    H   1.0     0.361400     0.520474     0.506556  Biso 1.000000     H
    H   1.0     0.861412     0.020476     0.506894  Biso 1.000000     H
    H   1.0     0.861406     0.520474     0.506557  Biso 1.000000     H
    H   1.0     0.311698     0.030188     0.620591  Biso 1.000000     H
    H   1.0     0.311700     0.529825     0.620297  Biso 1.000000     H
    H   1.0     0.811704     0.030188     0.620590  Biso 1.000000     H
    H   1.0     0.811706     0.529826     0.620297  Biso 1.000000     H
    H   1.0     0.397761     0.031370     0.625270  Biso 1.000000     H
    H   1.0     0.397761     0.531037     0.624987  Biso 1.000000     H
    H   1.0     0.897767     0.031371     0.625271  Biso 1.000000     H
    H   1.0     0.897767     0.531037     0.624988  Biso 1.000000     H
    H   1.0     0.352937     0.089068     0.631428  Biso 1.000000     H
    H   1.0     0.352888     0.588693     0.631439  Biso 1.000000     H
    H   1.0     0.852942     0.089068     0.631428  Biso 1.000000     H
    H   1.0     0.852893     0.588693     0.631439  Biso 1.000000     H
    H   1.0     0.478707     0.264209     0.298070  Biso 1.000000     H
    H   1.0     0.478918     0.763812     0.297856  Biso 1.000000     H
    H   1.0     0.978713     0.264210     0.298070  Biso 1.000000     H
    H   1.0     0.978924     0.763812     0.297856  Biso 1.000000     H
    H   1.0     0.283386     0.209516     0.294552  Biso 1.000000     H
    H   1.0     0.283509     0.709312     0.294474  Biso 1.000000     H
    H   1.0     0.783391     0.209517     0.294552  Biso 1.000000     H
    H   1.0     0.783515     0.709312     0.294474  Biso 1.000000     H
    H   1.0     0.273210     0.236933     0.174692  Biso 1.000000     H
    H   1.0     0.273310     0.736716     0.174607  Biso 1.000000     H
    H   1.0     0.773215     0.236934     0.174693  Biso 1.000000     H
    H   1.0     0.773316     0.736718     0.174608  Biso 1.000000     H
    H   1.0     0.468759     0.291112     0.178223  Biso 1.000000     H
    H   1.0     0.468946     0.790698     0.178003  Biso 1.000000     H
    H   1.0     0.968764     0.291114     0.178223  Biso 1.000000     H
    H   1.0     0.968952     0.790699     0.178003  Biso 1.000000     H
    H   1.0     0.388616     0.479528     0.006675  Biso 1.000000     H
    H   1.0     0.388608     0.979528     0.007010  Biso 1.000000     H
    H   1.0     0.888622     0.479527     0.006674  Biso 1.000000     H
    H   1.0     0.888614     0.979528     0.007010  Biso 1.000000     H
    H   1.0     0.438307     0.470136     0.120408  Biso 1.000000     H
    H   1.0     0.438306     0.969776     0.120701  Biso 1.000000     H
    H   1.0     0.938313     0.470138     0.120407  Biso 1.000000     H
    H   1.0     0.938312     0.969777     0.120701  Biso 1.000000     H
    H   1.0     0.352245     0.468941     0.125085  Biso 1.000000     H
    H   1.0     0.352241     0.968613     0.125364  Biso 1.000000     H
    H   1.0     0.852251     0.468942     0.125084  Biso 1.000000     H
    H   1.0     0.852247     0.968613     0.125364  Biso 1.000000     H
    H   1.0     0.397099     0.411274     0.131459  Biso 1.000000     H
    H   1.0     0.397043     0.910904     0.131449  Biso 1.000000     H
    H   1.0     0.897105     0.411276     0.131460  Biso 1.000000     H
    H   1.0     0.897048     0.910904     0.131449  Biso 1.000000     H
    H   1.0     0.271107     0.236125     0.797858  Biso 1.000000     H
    H   1.0     0.271313     0.735768     0.798052  Biso 1.000000     H
    H   1.0     0.771112     0.236125     0.797858  Biso 1.000000     H
    H   1.0     0.771318     0.735769     0.798052  Biso 1.000000     H
    H   1.0     0.466472     0.290718     0.794474  Biso 1.000000     H
    H   1.0     0.466637     0.790454     0.794594  Biso 1.000000     H
    H   1.0     0.966478     0.290718     0.794474  Biso 1.000000     H
    H   1.0     0.966642     0.790455     0.794593  Biso 1.000000     H
    H   1.0     0.476647     0.263333     0.674567  Biso 1.000000     H
    H   1.0     0.476797     0.763058     0.674693  Biso 1.000000     H
    H   1.0     0.976652     0.263333     0.674566  Biso 1.000000     H
    H   1.0     0.976802     0.763059     0.674692  Biso 1.000000     H
    H   1.0     0.281053     0.209257     0.677964  Biso 1.000000     H
    H   1.0     0.281246     0.708886     0.678165  Biso 1.000000     H
    H   1.0     0.781058     0.209257     0.677965  Biso 1.000000     H
    H   1.0     0.781251     0.708886     0.678165  Biso 1.000000     H
    C   1.0     0.078449     0.334420     0.987655  Biso 1.000000     C
    C   1.0     0.078446     0.834319     0.987975  Biso 1.000000     C
    C   1.0     0.578455     0.334420     0.987656  Biso 1.000000     C
    C   1.0     0.578452     0.834319     0.987977  Biso 1.000000     C
    C   1.0     0.140578     0.306927     0.968738  Biso 1.000000     C
    C   1.0     0.140551     0.806699     0.969293  Biso 1.000000     C
    C   1.0     0.640584     0.306927     0.968739  Biso 1.000000     C
    C   1.0     0.640557     0.806699     0.969294  Biso 1.000000     C
    C   1.0     0.143547     0.301125     0.892473  Biso 1.000000     C
    C   1.0     0.143395     0.800222     0.893123  Biso 1.000000     C
    C   1.0     0.643552     0.301125     0.892474  Biso 1.000000     C
    C   1.0     0.643400     0.800222     0.893124  Biso 1.000000     C
    C   1.0     0.112588     0.466567     0.126281  Biso 1.000000     C
    C   1.0     0.112573     0.966615     0.126237  Biso 1.000000     C
    C   1.0     0.612595     0.466569     0.126280  Biso 1.000000     C
    C   1.0     0.612578     0.966614     0.126238  Biso 1.000000     C
    C   1.0     0.117997     0.484271     0.197261  Biso 1.000000     C
    C   1.0     0.118003     0.984362     0.197197  Biso 1.000000     C
    C   1.0     0.618004     0.484275     0.197259  Biso 1.000000     C
    C   1.0     0.618008     0.984361     0.197197  Biso 1.000000     C
    C   1.0     0.065482     0.007543     0.228949  Biso 1.000000     C
    C   1.0     0.065531     0.507574     0.228944  Biso 1.000000     C
    C   1.0     0.565488     0.007542     0.228950  Biso 1.000000     C
    C   1.0     0.565537     0.507576     0.228943  Biso 1.000000     C
    C   1.0     0.175415     0.476705     0.232903  Biso 1.000000     C
    C   1.0     0.175496     0.976947     0.232762  Biso 1.000000     C
    C   1.0     0.675422     0.476708     0.232901  Biso 1.000000     C
    C   1.0     0.675502     0.976947     0.232763  Biso 1.000000     C
    C   1.0     0.133319     0.033200     0.401840  Biso 1.000000     C
    C   1.0     0.133304     0.533159     0.401874  Biso 1.000000     C
    C   1.0     0.633325     0.033200     0.401839  Biso 1.000000     C
    C   1.0     0.633310     0.533159     0.401874  Biso 1.000000     C
    C   1.0     0.127775     0.015542     0.330854  Biso 1.000000     C
    C   1.0     0.127749     0.515455     0.330911  Biso 1.000000     C
    C   1.0     0.627781     0.015542     0.330854  Biso 1.000000     C
    C   1.0     0.627755     0.515455     0.330911  Biso 1.000000     C
    C   1.0     0.180291     0.492263     0.299199  Biso 1.000000     C
    C   1.0     0.180381     0.992498     0.299061  Biso 1.000000     C
    C   1.0     0.680297     0.492264     0.299198  Biso 1.000000     C
    C   1.0     0.680387     0.992499     0.299061  Biso 1.000000     C
    C   1.0     0.070269     0.022941     0.295317  Biso 1.000000     C
    C   1.0     0.070307     0.522979     0.295310  Biso 1.000000     C
    C   1.0     0.570275     0.022941     0.295317  Biso 1.000000     C
    C   1.0     0.570313     0.522979     0.295310  Biso 1.000000     C
    C   1.0     0.171555     0.165625     0.487904  Biso 1.000000     C
    C   1.0     0.171550     0.665529     0.487652  Biso 1.000000     C
    C   1.0     0.671561     0.165625     0.487902  Biso 1.000000     C
    C   1.0     0.671556     0.665529     0.487651  Biso 1.000000     C
    C   1.0     0.109452     0.193273     0.469313  Biso 1.000000     C
    C   1.0     0.109432     0.693044     0.468779  Biso 1.000000     C
    C   1.0     0.609459     0.193273     0.469312  Biso 1.000000     C
    C   1.0     0.609439     0.693044     0.468779  Biso 1.000000     C
    C   1.0     0.106575     0.199788     0.393159  Biso 1.000000     C
    C   1.0     0.106457     0.698865     0.392525  Biso 1.000000     C
    C   1.0     0.606580     0.199788     0.393158  Biso 1.000000     C
    C   1.0     0.606463     0.698867     0.392526  Biso 1.000000     C
    C   1.0     0.137413     0.033389     0.626256  Biso 1.000000     C
    C   1.0     0.137394     0.533453     0.626315  Biso 1.000000     C
    C   1.0     0.637420     0.033392     0.626257  Biso 1.000000     C
    C   1.0     0.637399     0.533452     0.626314  Biso 1.000000     C
    C   1.0     0.131973     0.015615     0.697191  Biso 1.000000     C
    C   1.0     0.131992     0.515748     0.697283  Biso 1.000000     C
    C   1.0     0.631980     0.015617     0.697192  Biso 1.000000     C
    C   1.0     0.631997     0.515747     0.697282  Biso 1.000000     C
    C   1.0     0.184445     0.492411     0.728928  Biso 1.000000     C
    C   1.0     0.184476     0.992393     0.728906  Biso 1.000000     C
    C   1.0     0.684449     0.492409     0.728927  Biso 1.000000     C
    C   1.0     0.684482     0.992394     0.728906  Biso 1.000000     C
    C   1.0     0.074491     0.023040     0.732779  Biso 1.000000     C
    C   1.0     0.074600     0.523352     0.732963  Biso 1.000000     C
    C   1.0     0.574497     0.023040     0.732780  Biso 1.000000     C
    C   1.0     0.574605     0.523351     0.732962  Biso 1.000000     C
    C   1.0     0.116701     0.466834     0.901856  Biso 1.000000     C
    C   1.0     0.116669     0.966764     0.901802  Biso 1.000000     C
    C   1.0     0.616707     0.466835     0.901856  Biso 1.000000     C
    C   1.0     0.616673     0.966762     0.901801  Biso 1.000000     C
    C   1.0     0.122257     0.484547     0.830910  Biso 1.000000     C
    C   1.0     0.122203     0.984403     0.830819  Biso 1.000000     C
    C   1.0     0.622263     0.484548     0.830910  Biso 1.000000     C
    C   1.0     0.622207     0.984400     0.830818  Biso 1.000000     C
    C   1.0     0.069608     0.007474     0.799058  Biso 1.000000     C
    C   1.0     0.069734     0.507786     0.799243  Biso 1.000000     C
    C   1.0     0.569613     0.007472     0.799058  Biso 1.000000     C
    C   1.0     0.569739     0.507786     0.799242  Biso 1.000000     C
    C   1.0     0.179677     0.476998     0.795277  Biso 1.000000     C
    C   1.0     0.179691     0.976981     0.795255  Biso 1.000000     C
    C   1.0     0.679683     0.476997     0.795277  Biso 1.000000     C
    C   1.0     0.679696     0.976979     0.795255  Biso 1.000000     C
    C   1.0     0.420988     0.086086     0.512578  Biso 1.000000     C
    C   1.0     0.420974     0.586063     0.512547  Biso 1.000000     C
    C   1.0     0.920994     0.086086     0.512578  Biso 1.000000     C
    C   1.0     0.920980     0.586063     0.512548  Biso 1.000000     C
    C   1.0     0.358508     0.058202     0.530929  Biso 1.000000     C
    C   1.0     0.358494     0.558131     0.530786  Biso 1.000000     C
    C   1.0     0.858514     0.058202     0.530929  Biso 1.000000     C
    C   1.0     0.858500     0.558131     0.530786  Biso 1.000000     C
    C   1.0     0.355210     0.051710     0.607057  Biso 1.000000     C
    C   1.0     0.355196     0.551409     0.606876  Biso 1.000000     C
    C   1.0     0.855215     0.051710     0.607058  Biso 1.000000     C
    C   1.0     0.855201     0.551410     0.606876  Biso 1.000000     C
    C   1.0     0.387570     0.217680     0.374172  Biso 1.000000     C
    C   1.0     0.387653     0.717574     0.374112  Biso 1.000000     C
    C   1.0     0.887577     0.217679     0.374172  Biso 1.000000     C
    C   1.0     0.887659     0.717575     0.374112  Biso 1.000000     C
    C   1.0     0.381587     0.235227     0.303250  Biso 1.000000     C
    C   1.0     0.381735     0.734971     0.303121  Biso 1.000000     C
    C   1.0     0.881594     0.235227     0.303250  Biso 1.000000     C
    C   1.0     0.881740     0.734972     0.303122  Biso 1.000000     C
    C   1.0     0.433956     0.258315     0.270657  Biso 1.000000     C
    C   1.0     0.434141     0.757962     0.270475  Biso 1.000000     C
    C   1.0     0.933962     0.258316     0.270657  Biso 1.000000     C
    C   1.0     0.934146     0.757963     0.270475  Biso 1.000000     C
    C   1.0     0.323554     0.227509     0.268539  Biso 1.000000     C
    C   1.0     0.323688     0.727265     0.268431  Biso 1.000000     C
    C   1.0     0.823560     0.227510     0.268539  Biso 1.000000     C
    C   1.0     0.823693     0.727266     0.268432  Biso 1.000000     C
    C   1.0     0.364659     0.282464     0.098314  Biso 1.000000     C
    C   1.0     0.364701     0.782339     0.098258  Biso 1.000000     C
    C   1.0     0.864664     0.282465     0.098315  Biso 1.000000     C
    C   1.0     0.864707     0.782339     0.098258  Biso 1.000000     C
    C   1.0     0.370500     0.265436     0.169472  Biso 1.000000     C
    C   1.0     0.370620     0.765165     0.169346  Biso 1.000000     C
    C   1.0     0.870505     0.265437     0.169473  Biso 1.000000     C
    C   1.0     0.870626     0.765165     0.169345  Biso 1.000000     C
    C   1.0     0.317999     0.242577     0.202148  Biso 1.000000     C
    C   1.0     0.318119     0.742326     0.202040  Biso 1.000000     C
    C   1.0     0.818005     0.242578     0.202148  Biso 1.000000     C
    C   1.0     0.818125     0.742326     0.202040  Biso 1.000000     C
    C   1.0     0.428489     0.273244     0.204206  Biso 1.000000     C
    C   1.0     0.428660     0.772883     0.204022  Biso 1.000000     C
    C   1.0     0.928494     0.273245     0.204207  Biso 1.000000     C
    C   1.0     0.928666     0.772883     0.204022  Biso 1.000000     C
    C   1.0     0.329027     0.413939     0.012570  Biso 1.000000     C
    C   1.0     0.329011     0.913919     0.012599  Biso 1.000000     C
    C   1.0     0.829033     0.413939     0.012570  Biso 1.000000     C
    C   1.0     0.829018     0.913919     0.012599  Biso 1.000000     C
    C   1.0     0.391509     0.441864     0.030847  Biso 1.000000     C
    C   1.0     0.391494     0.941795     0.030989  Biso 1.000000     C
    C   1.0     0.891515     0.441864     0.030846  Biso 1.000000     C
    C   1.0     0.891500     0.941795     0.030989  Biso 1.000000     C
    C   1.0     0.394806     0.448565     0.106950  Biso 1.000000     C
    C   1.0     0.394787     0.948268     0.107130  Biso 1.000000     C
    C   1.0     0.894812     0.448566     0.106949  Biso 1.000000     C
    C   1.0     0.894793     0.948268     0.107130  Biso 1.000000     C
    C   1.0     0.362363     0.282408     0.874118  Biso 1.000000     C
    C   1.0     0.362457     0.782299     0.874188  Biso 1.000000     C
    C   1.0     0.862368     0.282409     0.874117  Biso 1.000000     C
    C   1.0     0.862464     0.782298     0.874188  Biso 1.000000     C
    C   1.0     0.368269     0.265013     0.803114  Biso 1.000000     C
    C   1.0     0.368434     0.764749     0.803255  Biso 1.000000     C
    C   1.0     0.868274     0.265014     0.803114  Biso 1.000000     C
    C   1.0     0.868440     0.764748     0.803255  Biso 1.000000     C
    C   1.0     0.315866     0.242000     0.770465  Biso 1.000000     C
    C   1.0     0.316058     0.741666     0.770642  Biso 1.000000     C
    C   1.0     0.815871     0.242001     0.770464  Biso 1.000000     C
    C   1.0     0.816064     0.741666     0.770642  Biso 1.000000     C
    C   1.0     0.426299     0.272751     0.768419  Biso 1.000000     C
    C   1.0     0.426466     0.772469     0.768556  Biso 1.000000     C
    C   1.0     0.926304     0.272751     0.768418  Biso 1.000000     C
    C   1.0     0.926472     0.772469     0.768556  Biso 1.000000     C
    C   1.0     0.385257     0.217667     0.598212  Biso 1.000000     C
    C   1.0     0.385331     0.717543     0.598278  Biso 1.000000     C
    C   1.0     0.885262     0.217666     0.598212  Biso 1.000000     C
    C   1.0     0.885336     0.717544     0.598277  Biso 1.000000     C
    C   1.0     0.379355     0.234840     0.669312  Biso 1.000000     C
    C   1.0     0.379503     0.734565     0.669450  Biso 1.000000     C
    C   1.0     0.879360     0.234840     0.669312  Biso 1.000000     C
    C   1.0     0.879507     0.734566     0.669449  Biso 1.000000     C
    C   1.0     0.431854     0.257698     0.702010  Biso 1.000000     C
    C   1.0     0.432012     0.757412     0.702147  Biso 1.000000     C
    C   1.0     0.931859     0.257698     0.702010  Biso 1.000000     C
    C   1.0     0.932017     0.757413     0.702146  Biso 1.000000     C
    C   1.0     0.321334     0.227088     0.703995  Biso 1.000000     C
    C   1.0     0.321517     0.726749     0.704174  Biso 1.000000     C
    C   1.0     0.821339     0.227088     0.703995  Biso 1.000000     C
    C   1.0     0.821523     0.726749     0.704173  Biso 1.000000     C
    O   1.0     0.085678     0.377709     0.016564  Biso 1.000000     O
    O   1.0     0.085702     0.877732     0.016547  Biso 1.000000     O
    O   1.0     0.585684     0.377709     0.016564  Biso 1.000000     O
    O   1.0     0.585709     0.877732     0.016547  Biso 1.000000     O
    O   1.0     0.195044     0.333685     0.994536  Biso 1.000000     O
    O   1.0     0.195067     0.833675     0.994575  Biso 1.000000     O
    O   1.0     0.695050     0.333685     0.994536  Biso 1.000000     O
    O   1.0     0.695073     0.833675     0.994575  Biso 1.000000     O
    O   1.0     0.025402     0.314039     0.973088  Biso 1.000000     O
    O   1.0     0.025382     0.813881     0.973624  Biso 1.000000     O
    O   1.0     0.525408     0.314039     0.973090  Biso 1.000000     O
    O   1.0     0.525388     0.813880     0.973629  Biso 1.000000     O
    O   1.0     0.058600     0.475335     0.096875  Biso 1.000000     O
    O   1.0     0.058559     0.975340     0.096858  Biso 1.000000     O
    O   1.0     0.558605     0.475334     0.096875  Biso 1.000000     O
    O   1.0     0.558565     0.975341     0.096857  Biso 1.000000     O
    O   1.0     0.160879     0.444360     0.101022  Biso 1.000000     O
    O   1.0     0.160856     0.944398     0.100978  Biso 1.000000     O
    O   1.0     0.660884     0.444358     0.101023  Biso 1.000000     O
    O   1.0     0.660862     0.944400     0.100977  Biso 1.000000     O
    O   1.0     0.188112     0.026732     0.430175  Biso 1.000000     O
    O   1.0     0.188098     0.526702     0.430209  Biso 1.000000     O
    O   1.0     0.688118     0.026731     0.430175  Biso 1.000000     O
    O   1.0     0.688104     0.526704     0.430208  Biso 1.000000     O
    O   1.0     0.083828     0.053509     0.427947  Biso 1.000000     O
    O   1.0     0.083822     0.553496     0.427965  Biso 1.000000     O
    O   1.0     0.583833     0.053507     0.427947  Biso 1.000000     O
    O   1.0     0.583829     0.553497     0.427964  Biso 1.000000     O
    O   1.0     0.164298     0.122272     0.516581  Biso 1.000000     O
    O   1.0     0.164308     0.622278     0.516603  Biso 1.000000     O
    O   1.0     0.664304     0.122272     0.516581  Biso 1.000000     O
    O   1.0     0.664314     0.622278     0.516603  Biso 1.000000     O
    O   1.0     0.054935     0.166313     0.494588  Biso 1.000000     O
    O   1.0     0.054957     0.666302     0.494551  Biso 1.000000     O
    O   1.0     0.554941     0.166313     0.494588  Biso 1.000000     O
    O   1.0     0.554963     0.666302     0.494551  Biso 1.000000     O
    O   1.0     0.224610     0.185990     0.473364  Biso 1.000000     O
    O   1.0     0.224601     0.685859     0.473006  Biso 1.000000     O
    O   1.0     0.724616     0.185989     0.473359  Biso 1.000000     O
    O   1.0     0.724607     0.685858     0.473006  Biso 1.000000     O
    O   1.0     0.191424     0.024663     0.596861  Biso 1.000000     O
    O   1.0     0.191379     0.524684     0.596892  Biso 1.000000     O
    O   1.0     0.691428     0.024661     0.596859  Biso 1.000000     O
    O   1.0     0.691385     0.524685     0.596892  Biso 1.000000     O
    O   1.0     0.089135     0.055617     0.601022  Biso 1.000000     O
    O   1.0     0.089115     0.555691     0.601100  Biso 1.000000     O
    O   1.0     0.589139     0.055614     0.601020  Biso 1.000000     O
    O   1.0     0.589121     0.555692     0.601100  Biso 1.000000     O
    O   1.0     0.061900     0.473278     0.930188  Biso 1.000000     O
    O   1.0     0.061881     0.973249     0.930151  Biso 1.000000     O
    O   1.0     0.561905     0.473276     0.930187  Biso 1.000000     O
    O   1.0     0.561888     0.973250     0.930152  Biso 1.000000     O
    O   1.0     0.166175     0.446483     0.927927  Biso 1.000000     O
    O   1.0     0.166167     0.946478     0.927909  Biso 1.000000     O
    O   1.0     0.666180     0.446482     0.927926  Biso 1.000000     O
    O   1.0     0.666173     0.946479     0.927910  Biso 1.000000     O
    O   1.0     0.414245     0.129088     0.483121  Biso 1.000000     O
    O   1.0     0.414234     0.629082     0.483134  Biso 1.000000     O
    O   1.0     0.914251     0.129088     0.483121  Biso 1.000000     O
    O   1.0     0.914240     0.629082     0.483134  Biso 1.000000     O
    O   1.0     0.304190     0.084868     0.505339  Biso 1.000000     O
    O   1.0     0.304167     0.584859     0.505336  Biso 1.000000     O
    O   1.0     0.804196     0.084867     0.505339  Biso 1.000000     O
    O   1.0     0.804173     0.584859     0.505336  Biso 1.000000     O
    O   1.0     0.473865     0.066241     0.528063  Biso 1.000000     O
    O   1.0     0.473850     0.566224     0.528051  Biso 1.000000     O
    O   1.0     0.973871     0.066241     0.528063  Biso 1.000000     O
    O   1.0     0.973856     0.566224     0.528051  Biso 1.000000     O
    O   1.0     0.441878     0.226421     0.403166  Biso 1.000000     O
    O   1.0     0.441930     0.726382     0.403137  Biso 1.000000     O
    O   1.0     0.941884     0.226421     0.403166  Biso 1.000000     O
    O   1.0     0.941937     0.726381     0.403137  Biso 1.000000     O
    O   1.0     0.339108     0.195494     0.399678  Biso 1.000000     O
    O   1.0     0.339156     0.695468     0.399658  Biso 1.000000     O
    O   1.0     0.839114     0.195495     0.399678  Biso 1.000000     O
    O   1.0     0.839162     0.695467     0.399658  Biso 1.000000     O
    O   1.0     0.309760     0.275662     0.070154  Biso 1.000000     O
    O   1.0     0.309777     0.775604     0.070127  Biso 1.000000     O
    O   1.0     0.809767     0.275662     0.070154  Biso 1.000000     O
    O   1.0     0.809783     0.775605     0.070127  Biso 1.000000     O
    O   1.0     0.414280     0.302658     0.071881  Biso 1.000000     O
    O   1.0     0.414284     0.802618     0.071869  Biso 1.000000     O
    O   1.0     0.914287     0.302656     0.071880  Biso 1.000000     O
    O   1.0     0.914289     0.802619     0.071869  Biso 1.000000     O
    O   1.0     0.335774     0.370905     0.983146  Biso 1.000000     O
    O   1.0     0.335762     0.870900     0.983135  Biso 1.000000     O
    O   1.0     0.835780     0.370905     0.983146  Biso 1.000000     O
    O   1.0     0.835768     0.870900     0.983135  Biso 1.000000     O
    O   1.0     0.445828     0.415131     0.005359  Biso 1.000000     O
    O   1.0     0.445804     0.915124     0.005365  Biso 1.000000     O
    O   1.0     0.945834     0.415131     0.005360  Biso 1.000000     O
    O   1.0     0.945810     0.915124     0.005365  Biso 1.000000     O
    O   1.0     0.276149     0.433791     0.028052  Biso 1.000000     O
    O   1.0     0.276133     0.933777     0.028061  Biso 1.000000     O
    O   1.0     0.776155     0.433792     0.028051  Biso 1.000000     O
    O   1.0     0.776139     0.933777     0.028060  Biso 1.000000     O
    O   1.0     0.308092     0.273599     0.903139  Biso 1.000000     O
    O   1.0     0.308150     0.773566     0.903169  Biso 1.000000     O
    O   1.0     0.808098     0.273599     0.903139  Biso 1.000000     O
    O   1.0     0.808155     0.773567     0.903168  Biso 1.000000     O
    O   1.0     0.410866     0.304519     0.899671  Biso 1.000000     O
    O   1.0     0.410922     0.804495     0.899700  Biso 1.000000     O
    O   1.0     0.910872     0.304519     0.899670  Biso 1.000000     O
    O   1.0     0.910927     0.804497     0.899699  Biso 1.000000     O
    O   1.0     0.440168     0.224407     0.570075  Biso 1.000000     O
    O   1.0     0.440223     0.724344     0.570120  Biso 1.000000     O
    O   1.0     0.940172     0.224408     0.570074  Biso 1.000000     O
    O   1.0     0.940228     0.724343     0.570120  Biso 1.000000     O
    O   1.0     0.335670     0.197375     0.571822  Biso 1.000000     O
    O   1.0     0.335705     0.697341     0.571842  Biso 1.000000     O
    O   1.0     0.835674     0.197376     0.571822  Biso 1.000000     O
    O   1.0     0.835711     0.697339     0.571842  Biso 1.000000     O
   Zn   1.0     0.032400     0.441966     0.013928  Biso 1.000000    Zn
   Zn   1.0     0.032373     0.941969     0.013914  Biso 1.000000    Zn
   Zn   1.0     0.532405     0.441966     0.013928  Biso 1.000000    Zn
   Zn   1.0     0.532379     0.941969     0.013914  Biso 1.000000    Zn
   Zn   1.0     0.183337     0.408837     0.014015  Biso 1.000000    Zn
   Zn   1.0     0.183327     0.908835     0.013996  Biso 1.000000    Zn
   Zn   1.0     0.683343     0.408837     0.014015  Biso 1.000000    Zn
   Zn   1.0     0.683334     0.908836     0.013996  Biso 1.000000    Zn
   Zn   1.0     0.217616     0.058029     0.513936  Biso 1.000000    Zn
   Zn   1.0     0.217592     0.558026     0.513952  Biso 1.000000    Zn
   Zn   1.0     0.717622     0.058028     0.513936  Biso 1.000000    Zn
   Zn   1.0     0.717598     0.558026     0.513952  Biso 1.000000    Zn
   Zn   1.0     0.066672     0.091162     0.514027  Biso 1.000000    Zn
   Zn   1.0     0.066661     0.591156     0.514047  Biso 1.000000    Zn
   Zn   1.0     0.566678     0.091162     0.514027  Biso 1.000000    Zn
   Zn   1.0     0.566667     0.591157     0.514047  Biso 1.000000    Zn
   Zn   1.0     0.468998     0.193178     0.485964  Biso 1.000000    Zn
   Zn   1.0     0.469012     0.693174     0.485965  Biso 1.000000    Zn
   Zn   1.0     0.969004     0.193179     0.485963  Biso 1.000000    Zn
   Zn   1.0     0.969019     0.693173     0.485965  Biso 1.000000    Zn
   Zn   1.0     0.316796     0.159927     0.486144  Biso 1.000000    Zn
   Zn   1.0     0.316795     0.659922     0.486137  Biso 1.000000    Zn
   Zn   1.0     0.816802     0.159927     0.486144  Biso 1.000000    Zn
   Zn   1.0     0.816802     0.659922     0.486136  Biso 1.000000    Zn
   Zn   1.0     0.281002     0.306818     0.985983  Biso 1.000000    Zn
   Zn   1.0     0.281015     0.806813     0.985983  Biso 1.000000    Zn
   Zn   1.0     0.781008     0.306818     0.985983  Biso 1.000000    Zn
   Zn   1.0     0.781022     0.806813     0.985983  Biso 1.000000    Zn
   Zn   1.0     0.433222     0.340061     0.986165  Biso 1.000000    Zn
   Zn   1.0     0.433216     0.840055     0.986187  Biso 1.000000    Zn
   Zn   1.0     0.933229     0.340061     0.986165  Biso 1.000000    Zn
   Zn   1.0     0.933222     0.840056     0.986187  Biso 1.000000    Zn
