#======================================================================

# CRYSTAL DATA

#----------------------------------------------------------------------

data_VESTA_phase_1


_pd_phase_name                         MOF
_cell_length_a                         20.65200
_cell_length_b                         13.15700
_cell_length_c                         17.99400
_cell_angle_alpha                      79.40300
_cell_angle_beta                       86.85300
_cell_angle_gamma                      78.87600
_symmetry_space_group_name_H-M         "P 1"
_symmetry_Int_Tables_number            1

loop_
_symmetry_equiv_pos_as_xyz
   "x, y, z"

loop_
   _atom_site_label
   _atom_site_occupancy
   _atom_site_fract_x
   _atom_site_fract_y
   _atom_site_fract_z
   _atom_site_adp_type
   _atom_site_B_iso_or_equiv
   _atom_site_type_symbol
    H   1.0     0.289972     0.197933     0.694397  Biso 1.000000     H
    H   1.0     0.789962     0.197932     0.694399  Biso 1.000000     H
    H   1.0     0.223343     0.914136     0.800616  Biso 1.000000     H
    H   1.0     0.723333     0.914134     0.800615  Biso 1.000000     H
    H   1.0     0.082496     0.185971     0.704886  Biso 1.000000     H
    H   1.0     0.582486     0.185973     0.704891  Biso 1.000000     H
    H   1.0     0.102333     0.757223     0.734671  Biso 1.000000     H
    H   1.0     0.602321     0.757219     0.734677  Biso 1.000000     H
    H   1.0     0.096054     0.578974     0.672010  Biso 1.000000     H
    H   1.0     0.596040     0.578970     0.672017  Biso 1.000000     H
    H   1.0     0.404350     0.717069     0.739394  Biso 1.000000     H
    H   1.0     0.904343     0.717063     0.739391  Biso 1.000000     H
    H   1.0     0.417811     0.576307     0.646592  Biso 1.000000     H
    H   1.0     0.917808     0.576303     0.646584  Biso 1.000000     H
    H   1.0     0.499477     0.517177     0.625616  Biso 1.000000     H
    H   1.0     0.999474     0.517174     0.625612  Biso 1.000000     H
    H   1.0     0.036771     0.473619     0.803439  Biso 1.000000     H
    H   1.0     0.536755     0.473624     0.803444  Biso 1.000000     H
    H   1.0     0.032149     0.313900     0.897603  Biso 1.000000     H
    H   1.0     0.532135     0.313904     0.897609  Biso 1.000000     H
    H   1.0     0.384859     0.237115     0.767825  Biso 1.000000     H
    H   1.0     0.884850     0.237117     0.767820  Biso 1.000000     H
    H   1.0     0.385712     0.402542     0.675965  Biso 1.000000     H
    H   1.0     0.885705     0.402544     0.675960  Biso 1.000000     H
    H   1.0     0.469507     0.097273     0.858408  Biso 1.000000     H
    H   1.0     0.969498     0.097272     0.858401  Biso 1.000000     H
    H   1.0     0.406386     0.157741     0.914952  Biso 1.000000     H
    H   1.0     0.906377     0.157741     0.914946  Biso 1.000000     H
    H   1.0     0.095633     0.105645     0.898446  Biso 1.000000     H
    H   1.0     0.595621     0.105648     0.898451  Biso 1.000000     H
    H   1.0     0.140007     0.074919     0.046046  Biso 1.000000     H
    H   1.0     0.639996     0.074926     0.046051  Biso 1.000000     H
    H   1.0     0.432095     0.152673     0.049929  Biso 1.000000     H
    H   1.0     0.932085     0.152668     0.049923  Biso 1.000000     H
    H   1.0     0.210023     0.802062     0.305614  Biso 1.000000     H
    H   1.0     0.710012     0.802059     0.305615  Biso 1.000000     H
    H   1.0     0.276644     0.085866     0.199397  Biso 1.000000     H
    H   1.0     0.776635     0.085860     0.199394  Biso 1.000000     H
    H   1.0     0.417496     0.814040     0.295130  Biso 1.000000     H
    H   1.0     0.917486     0.814032     0.295127  Biso 1.000000     H
    H   1.0     0.397662     0.242782     0.265341  Biso 1.000000     H
    H   1.0     0.897651     0.242777     0.265336  Biso 1.000000     H
    H   1.0     0.403943     0.421030     0.328001  Biso 1.000000     H
    H   1.0     0.903932     0.421025     0.327997  Biso 1.000000     H
    H   1.0     0.095643     0.282928     0.260618  Biso 1.000000     H
    H   1.0     0.595633     0.282933     0.260624  Biso 1.000000     H
    H   1.0     0.082182     0.423689     0.353421  Biso 1.000000     H
    H   1.0     0.582171     0.423694     0.353427  Biso 1.000000     H
    H   1.0     0.000516     0.482818     0.374398  Biso 1.000000     H
    H   1.0     0.500506     0.482824     0.374402  Biso 1.000000     H
    H   1.0     0.463226     0.526377     0.196575  Biso 1.000000     H
    H   1.0     0.963214     0.526373     0.196571  Biso 1.000000     H
    H   1.0     0.467844     0.686097     0.102411  Biso 1.000000     H
    H   1.0     0.967832     0.686094     0.102408  Biso 1.000000     H
    H   1.0     0.115133     0.762881     0.232187  Biso 1.000000     H
    H   1.0     0.615123     0.762886     0.232191  Biso 1.000000     H
    H   1.0     0.114282     0.597452     0.324046  Biso 1.000000     H
    H   1.0     0.614272     0.597458     0.324051  Biso 1.000000     H
    H   1.0     0.030477     0.902725     0.141610  Biso 1.000000     H
    H   1.0     0.530469     0.902729     0.141612  Biso 1.000000     H
    H   1.0     0.093601     0.842263     0.085065  Biso 1.000000     H
    H   1.0     0.593592     0.842265     0.085067  Biso 1.000000     H
    H   1.0     0.404357     0.894351     0.101567  Biso 1.000000     H
    H   1.0     0.904345     0.894348     0.101562  Biso 1.000000     H
    H   1.0     0.359983     0.925075     0.953967  Biso 1.000000     H
    H   1.0     0.859972     0.925073     0.953962  Biso 1.000000     H
    H   1.0     0.067895     0.847330     0.950088  Biso 1.000000     H
    H   1.0     0.567885     0.847333     0.950091  Biso 1.000000     H
    H   1.0     0.422651     0.506522     0.481202  Biso 1.000000     H
    H   1.0     0.922641     0.506519     0.481198  Biso 1.000000     H
    H   1.0     0.017256     0.334470     0.547271  Biso 1.000000     H
    H   1.0     0.517246     0.334474     0.547276  Biso 1.000000     H
    H   1.0     0.328970     0.248592     0.560136  Biso 1.000000     H
    H   1.0     0.828958     0.248591     0.560135  Biso 1.000000     H
    H   1.0     0.003045     0.160059     0.632054  Biso 1.000000     H
    H   1.0     0.503036     0.160063     0.632056  Biso 1.000000     H
    H   1.0     0.424771     0.126714     0.642626  Biso 1.000000     H
    H   1.0     0.924759     0.126710     0.642622  Biso 1.000000     H
    H   1.0     0.015889     0.950687     0.638276  Biso 1.000000     H
    H   1.0     0.515880     0.950691     0.638279  Biso 1.000000     H
    H   1.0     0.451489     0.183713     0.442587  Biso 1.000000     H
    H   1.0     0.951478     0.183710     0.442584  Biso 1.000000     H
    H   1.0     0.327059     0.704139     0.511169  Biso 1.000000     H
    H   1.0     0.827054     0.704131     0.511168  Biso 1.000000     H
    H   1.0     0.255542     0.718782     0.735403  Biso 1.000000     H
    H   1.0     0.755538     0.718786     0.735400  Biso 1.000000     H
    H   1.0     0.225348     0.540871     0.690005  Biso 1.000000     H
    H   1.0     0.725338     0.540876     0.690006  Biso 1.000000     H
    H   1.0     0.373663     0.829788     0.605156  Biso 1.000000     H
    H   1.0     0.873660     0.829784     0.605146  Biso 1.000000     H
    H   1.0     0.312287     0.862902     0.673607  Biso 1.000000     H
    H   1.0     0.812289     0.862899     0.673602  Biso 1.000000     H
    H   1.0     0.186804     0.910908     0.605474  Biso 1.000000     H
    H   1.0     0.686801     0.910901     0.605479  Biso 1.000000     H
    H   1.0     0.372491     0.954742     0.494714  Biso 1.000000     H
    H   1.0     0.872482     0.954742     0.494705  Biso 1.000000     H
    H   1.0     0.077344     0.493475     0.518809  Biso 1.000000     H
    H   1.0     0.577333     0.493478     0.518815  Biso 1.000000     H
    H   1.0     0.482740     0.665527     0.452740  Biso 1.000000     H
    H   1.0     0.982730     0.665522     0.452734  Biso 1.000000     H
    H   1.0     0.171026     0.751406     0.439880  Biso 1.000000     H
    H   1.0     0.671016     0.751407     0.439882  Biso 1.000000     H
    H   1.0     0.496951     0.839938     0.367960  Biso 1.000000     H
    H   1.0     0.996940     0.839935     0.367957  Biso 1.000000     H
    H   1.0     0.075225     0.873283     0.357387  Biso 1.000000     H
    H   1.0     0.575216     0.873286     0.357391  Biso 1.000000     H
    H   1.0     0.484107     0.049310     0.361737  Biso 1.000000     H
    H   1.0     0.984096     0.049308     0.361733  Biso 1.000000     H
    H   1.0     0.048508     0.816285     0.557426  Biso 1.000000     H
    H   1.0     0.548498     0.816288     0.557429  Biso 1.000000     H
    H   1.0     0.172935     0.295864     0.488839  Biso 1.000000     H
    H   1.0     0.672921     0.295864     0.488844  Biso 1.000000     H
    H   1.0     0.244455     0.281224     0.264607  Biso 1.000000     H
    H   1.0     0.744439     0.281221     0.264611  Biso 1.000000     H
    H   1.0     0.274648     0.459134     0.310007  Biso 1.000000     H
    H   1.0     0.774634     0.459131     0.310010  Biso 1.000000     H
    H   1.0     0.126333     0.170217     0.394852  Biso 1.000000     H
    H   1.0     0.626318     0.170214     0.394861  Biso 1.000000     H
    H   1.0     0.187709     0.137102     0.326402  Biso 1.000000     H
    H   1.0     0.687690     0.137102     0.326407  Biso 1.000000     H
    H   1.0     0.313190     0.089098     0.394535  Biso 1.000000     H
    H   1.0     0.813176     0.089099     0.394531  Biso 1.000000     H
    H   1.0     0.127504     0.045263     0.505295  Biso 1.000000     H
    H   1.0     0.627495     0.045258     0.505304  Biso 1.000000     H
    C   1.0     0.184806     0.203217     0.694836  Biso 1.000000     C
    C   1.0     0.684796     0.203218     0.694841  Biso 1.000000     C
    C   1.0     0.249975     0.155102     0.711536  Biso 1.000000     C
    C   1.0     0.749965     0.155101     0.711536  Biso 1.000000     C
    C   1.0     0.264236     0.050429     0.749696  Biso 1.000000     C
    C   1.0     0.764226     0.050428     0.749697  Biso 1.000000     C
    C   1.0     0.334311     0.996752     0.766638  Biso 1.000000     C
    C   1.0     0.834302     0.996750     0.766636  Biso 1.000000     C
    C   1.0     0.212647     0.995384     0.771230  Biso 1.000000     C
    C   1.0     0.712637     0.995381     0.771229  Biso 1.000000     C
    C   1.0     0.147125     0.043837     0.755449  Biso 1.000000     C
    C   1.0     0.647115     0.043837     0.755453  Biso 1.000000     C
    C   1.0     0.092401     0.982411     0.777981  Biso 1.000000     C
    C   1.0     0.592390     0.982410     0.777981  Biso 1.000000     C
    C   1.0     0.133371     0.148333     0.717274  Biso 1.000000     C
    C   1.0     0.633361     0.148332     0.717277  Biso 1.000000     C
    C   1.0     0.060553     0.723083     0.724743  Biso 1.000000     C
    C   1.0     0.560541     0.723081     0.724748  Biso 1.000000     C
    C   1.0     0.058175     0.636497     0.693264  Biso 1.000000     C
    C   1.0     0.558161     0.636495     0.693269  Biso 1.000000     C
    C   1.0     0.457142     0.705924     0.728733  Biso 1.000000     C
    C   1.0     0.957134     0.705921     0.728729  Biso 1.000000     C
    C   1.0     0.466400     0.542677     0.671330  Biso 1.000000     C
    C   1.0     0.966396     0.542675     0.671325  Biso 1.000000     C
    C   1.0     0.461794     0.449172     0.733036  Biso 1.000000     C
    C   1.0     0.961788     0.449171     0.733030  Biso 1.000000     C
    C   1.0     0.002209     0.423557     0.795962  Biso 1.000000     C
    C   1.0     0.502194     0.423560     0.795968  Biso 1.000000     C
    C   1.0     0.499928     0.332339     0.849079  Biso 1.000000     C
    C   1.0     0.999921     0.332337     0.849073  Biso 1.000000     C
    C   1.0     0.458209     0.264352     0.839162  Biso 1.000000     C
    C   1.0     0.958200     0.264351     0.839156  Biso 1.000000     C
    C   1.0     0.417090     0.290525     0.776283  Biso 1.000000     C
    C   1.0     0.917081     0.290526     0.776278  Biso 1.000000     C
    C   1.0     0.418348     0.382587     0.724270  Biso 1.000000     C
    C   1.0     0.918341     0.382587     0.724265  Biso 1.000000     C
    C   1.0     0.456355     0.160784     0.891516  Biso 1.000000     C
    C   1.0     0.956346     0.160783     0.891510  Biso 1.000000     C
    C   1.0     0.069188     0.110407     0.951736  Biso 1.000000     C
    C   1.0     0.569177     0.110411     0.951741  Biso 1.000000     C
    C   1.0     0.090270     0.095344     0.024617  Biso 1.000000     C
    C   1.0     0.590259     0.095350     0.024622  Biso 1.000000     C
    C   1.0     0.482702     0.136822     0.029173  Biso 1.000000     C
    C   1.0     0.982693     0.136818     0.029167  Biso 1.000000     C
    C   1.0     0.315188     0.796786     0.305176  Biso 1.000000     C
    C   1.0     0.815177     0.796782     0.305177  Biso 1.000000     C
    C   1.0     0.250019     0.844898     0.288483  Biso 1.000000     C
    C   1.0     0.750008     0.844891     0.288473  Biso 1.000000     C
    C   1.0     0.235755     0.949568     0.250316  Biso 1.000000     C
    C   1.0     0.735745     0.949566     0.250317  Biso 1.000000     C
    C   1.0     0.165679     0.003240     0.233377  Biso 1.000000     C
    C   1.0     0.665670     0.003235     0.233370  Biso 1.000000     C
    C   1.0     0.287341     0.004622     0.228789  Biso 1.000000     C
    C   1.0     0.787333     0.004612     0.228778  Biso 1.000000     C
    C   1.0     0.352864     0.956171     0.244564  Biso 1.000000     C
    C   1.0     0.852855     0.956164     0.244564  Biso 1.000000     C
    C   1.0     0.407586     0.017606     0.222036  Biso 1.000000     C
    C   1.0     0.907578     0.017593     0.222026  Biso 1.000000     C
    C   1.0     0.366620     0.851679     0.282746  Biso 1.000000     C
    C   1.0     0.866611     0.851666     0.282735  Biso 1.000000     C
    C   1.0     0.439442     0.276920     0.275270  Biso 1.000000     C
    C   1.0     0.939431     0.276915     0.275265  Biso 1.000000     C
    C   1.0     0.441821     0.363506     0.306749  Biso 1.000000     C
    C   1.0     0.941811     0.363501     0.306744  Biso 1.000000     C
    C   1.0     0.042851     0.294072     0.271279  Biso 1.000000     C
    C   1.0     0.542841     0.294077     0.271285  Biso 1.000000     C
    C   1.0     0.033593     0.457318     0.328683  Biso 1.000000     C
    C   1.0     0.533582     0.457323     0.328688  Biso 1.000000     C
    C   1.0     0.038198     0.550823     0.266978  Biso 1.000000     C
    C   1.0     0.538189     0.550828     0.266983  Biso 1.000000     C
    C   1.0     0.497788     0.576440     0.204051  Biso 1.000000     C
    C   1.0     0.997776     0.576437     0.204047  Biso 1.000000     C
    C   1.0     0.000061     0.667658     0.150936  Biso 1.000000     C
    C   1.0     0.500052     0.667661     0.150940  Biso 1.000000     C
    C   1.0     0.041781     0.735645     0.160853  Biso 1.000000     C
    C   1.0     0.541772     0.735649     0.160857  Biso 1.000000     C
    C   1.0     0.082902     0.709471     0.223729  Biso 1.000000     C
    C   1.0     0.582892     0.709475     0.223734  Biso 1.000000     C
    C   1.0     0.081645     0.617408     0.275742  Biso 1.000000     C
    C   1.0     0.581635     0.617413     0.275747  Biso 1.000000     C
    C   1.0     0.043632     0.839216     0.108501  Biso 1.000000     C
    C   1.0     0.543623     0.839219     0.108504  Biso 1.000000     C
    C   1.0     0.430802     0.889590     0.048277  Biso 1.000000     C
    C   1.0     0.930790     0.889587     0.048273  Biso 1.000000     C
    C   1.0     0.409720     0.904652     0.975396  Biso 1.000000     C
    C   1.0     0.909710     0.904650     0.975392  Biso 1.000000     C
    C   1.0     0.017287     0.863179     0.970843  Biso 1.000000     C
    C   1.0     0.517277     0.863182     0.970846  Biso 1.000000     C
    C   1.0     0.417946     0.426810     0.506692  Biso 1.000000     C
    C   1.0     0.917935     0.426807     0.506689  Biso 1.000000     C
    C   1.0     0.464925     0.342886     0.537561  Biso 1.000000     C
    C   1.0     0.964914     0.342882     0.537557  Biso 1.000000     C
    C   1.0     0.366852     0.295950     0.545914  Biso 1.000000     C
    C   1.0     0.866840     0.295947     0.545913  Biso 1.000000     C
    C   1.0     0.460573     0.154585     0.599907  Biso 1.000000     C
    C   1.0     0.960562     0.154582     0.599903  Biso 1.000000     C
    C   1.0     0.480966     0.076645     0.546760  Biso 1.000000     C
    C   1.0     0.980954     0.076641     0.546756  Biso 1.000000     C
    C   1.0     0.008447     0.972410     0.577517  Biso 1.000000     C
    C   1.0     0.508438     0.972414     0.577521  Biso 1.000000     C
    C   1.0     0.472809     0.103392     0.468436  Biso 1.000000     C
    C   1.0     0.972797     0.103389     0.468432  Biso 1.000000     C
    C   1.0     0.303381     0.682893     0.565731  Biso 1.000000     C
    C   1.0     0.803376     0.682889     0.565730  Biso 1.000000     C
    C   1.0     0.265477     0.688320     0.683088  Biso 1.000000     C
    C   1.0     0.765472     0.688322     0.683086  Biso 1.000000     C
    C   1.0     0.250917     0.601463     0.659945  Biso 1.000000     C
    C   1.0     0.750910     0.601465     0.659945  Biso 1.000000     C
    C   1.0     0.320293     0.840624     0.617423  Biso 1.000000     C
    C   1.0     0.820291     0.840621     0.617418  Biso 1.000000     C
    C   1.0     0.283765     0.923773     0.557060  Biso 1.000000     C
    C   1.0     0.783759     0.923769     0.557057  Biso 1.000000     C
    C   1.0     0.214747     0.949789     0.559283  Biso 1.000000     C
    C   1.0     0.714741     0.949784     0.559286  Biso 1.000000     C
    C   1.0     0.318710     0.974544     0.497261  Biso 1.000000     C
    C   1.0     0.818701     0.974543     0.497256  Biso 1.000000     C
    C   1.0     0.082050     0.573187     0.493321  Biso 1.000000     C
    C   1.0     0.582039     0.573191     0.493326  Biso 1.000000     C
    C   1.0     0.035071     0.657111     0.462451  Biso 1.000000     C
    C   1.0     0.535060     0.657115     0.462456  Biso 1.000000     C
    C   1.0     0.133144     0.704048     0.454100  Biso 1.000000     C
    C   1.0     0.633134     0.704050     0.454103  Biso 1.000000     C
    C   1.0     0.039423     0.845412     0.400106  Biso 1.000000     C
    C   1.0     0.539414     0.845415     0.400110  Biso 1.000000     C
    C   1.0     0.019031     0.923353     0.453253  Biso 1.000000     C
    C   1.0     0.519021     0.923356     0.453257  Biso 1.000000     C
    C   1.0     0.491549     0.027588     0.422496  Biso 1.000000     C
    C   1.0     0.991538     0.027585     0.422492  Biso 1.000000     C
    C   1.0     0.027188     0.896606     0.531577  Biso 1.000000     C
    C   1.0     0.527179     0.896609     0.531580  Biso 1.000000     C
    C   1.0     0.196613     0.317110     0.434278  Biso 1.000000     C
    C   1.0     0.696599     0.317110     0.434282  Biso 1.000000     C
    C   1.0     0.234519     0.311685     0.316922  Biso 1.000000     C
    C   1.0     0.734503     0.311683     0.316926  Biso 1.000000     C
    C   1.0     0.249079     0.398542     0.340066  Biso 1.000000     C
    C   1.0     0.749064     0.398539     0.340069  Biso 1.000000     C
    C   1.0     0.179702     0.159380     0.382585  Biso 1.000000     C
    C   1.0     0.679686     0.159379     0.382591  Biso 1.000000     C
    C   1.0     0.216230     0.076232     0.442949  Biso 1.000000     C
    C   1.0     0.716218     0.076231     0.442951  Biso 1.000000     C
    C   1.0     0.285248     0.050217     0.440726  Biso 1.000000     C
    C   1.0     0.785236     0.050216     0.440723  Biso 1.000000     C
    C   1.0     0.181285     0.025462     0.502748  Biso 1.000000     C
    C   1.0     0.681277     0.025457     0.502753  Biso 1.000000     C
    N   1.0    -0.002823     0.766007     0.746388  Biso 1.000000     N
    N   1.0     0.497165     0.766008     0.746392  Biso 1.000000     N
    N   1.0     0.492372     0.626865     0.695915  Biso 1.000000     N
    N   1.0     0.992366     0.626863     0.695910  Biso 1.000000     N
    N   1.0     0.500872     0.136853     0.955451  Biso 1.000000     N
    N   1.0     0.000000     0.136851     0.955445  Biso 1.000000     N
    N   1.0     0.035880     0.111760     0.072501  Biso 1.000000     N
    N   1.0     0.535869     0.111766     0.072506  Biso 1.000000     N
    N   1.0     0.502818     0.233994     0.253626  Biso 1.000000     N
    N   1.0     0.000000     0.233989     0.253620  Biso 1.000000     N
    N   1.0     0.007620     0.373131     0.304098  Biso 1.000000     N
    N   1.0     0.507610     0.373136     0.304103  Biso 1.000000     N
    N   1.0    -0.000884     0.863146     0.044565  Biso 1.000000     N
    N   1.0     0.499107     0.863149     0.044568  Biso 1.000000     N
    N   1.0     0.464111     0.888238     0.927512  Biso 1.000000     N
    N   1.0     0.964100     0.888235     0.927508  Biso 1.000000     N
    N   1.0     0.356907     0.396618     0.512156  Biso 1.000000     N
    N   1.0     0.856895     0.396615     0.512155  Biso 1.000000     N
    N   1.0     0.431668     0.260563     0.562527  Biso 1.000000     N
    N   1.0     0.931657     0.260559     0.562524  Biso 1.000000     N
    N   1.0     0.274802     0.599168     0.586711  Biso 1.000000     N
    N   1.0     0.774794     0.599166     0.586711  Biso 1.000000     N
    N   1.0     0.299049     0.738953     0.622898  Biso 1.000000     N
    N   1.0     0.799046     0.738950     0.622896  Biso 1.000000     N
    N   1.0     0.143089     0.603380     0.487858  Biso 1.000000     N
    N   1.0     0.643078     0.603382     0.487861  Biso 1.000000     N
    N   1.0     0.068328     0.739435     0.437486  Biso 1.000000     N
    N   1.0     0.568318     0.739438     0.437490  Biso 1.000000     N
    N   1.0     0.225193     0.400835     0.413300  Biso 1.000000     N
    N   1.0     0.725179     0.400834     0.413303  Biso 1.000000     N
    N   1.0     0.200946     0.261052     0.377110  Biso 1.000000     N
    N   1.0     0.700930     0.261051     0.377115  Biso 1.000000     N
    O   1.0     0.227714     0.351587     0.599850  Biso 1.000000     O
    O   1.0     0.727702     0.351589     0.599852  Biso 1.000000     O
    O   1.0     0.147013     0.405884     0.698350  Biso 1.000000     O
    O   1.0     0.647006     0.405881     0.698359  Biso 1.000000     O
    O   1.0     0.111445     0.333663     0.592470  Biso 1.000000     O
    O   1.0     0.611431     0.333666     0.592481  Biso 1.000000     O
    O   1.0     0.379355     0.053122     0.756299  Biso 1.000000     O
    O   1.0     0.879344     0.053120     0.756299  Biso 1.000000     O
    O   1.0     0.346875     0.897874     0.790405  Biso 1.000000     O
    O   1.0     0.846865     0.897872     0.790404  Biso 1.000000     O
    O   1.0     0.105178     0.890495     0.815473  Biso 1.000000     O
    O   1.0     0.605167     0.890496     0.815475  Biso 1.000000     O
    O   1.0     0.033911     0.029979     0.756220  Biso 1.000000     O
    O   1.0     0.533900     0.029981     0.756222  Biso 1.000000     O
    O   1.0     0.272283     0.648397     0.400154  Biso 1.000000     O
    O   1.0     0.772272     0.648398     0.400153  Biso 1.000000     O
    O   1.0     0.352977     0.594138     0.301636  Biso 1.000000     O
    O   1.0     0.852968     0.594122     0.301641  Biso 1.000000     O
    O   1.0     0.388554     0.666317     0.407532  Biso 1.000000     O
    O   1.0     0.888541     0.666319     0.407530  Biso 1.000000     O
    O   1.0     0.120639     0.946864     0.243711  Biso 1.000000     O
    O   1.0     0.620627     0.946865     0.243714  Biso 1.000000     O
    O   1.0     0.153113     0.102116     0.209601  Biso 1.000000     O
    O   1.0     0.653104     0.102113     0.209605  Biso 1.000000     O
    O   1.0     0.394808     0.109517     0.184538  Biso 1.000000     O
    O   1.0     0.894799     0.109510     0.184538  Biso 1.000000     O
    O   1.0     0.466077     0.970036     0.243791  Biso 1.000000     O
    O   1.0     0.966067     0.970027     0.243790  Biso 1.000000     O
    S   1.0     0.165427     0.335522     0.642874  Biso 1.000000     S
    S   1.0     0.665416     0.335523     0.642880  Biso 1.000000     S
    S   1.0     0.334568     0.664476     0.357129  Biso 1.000000     S
    S   1.0     0.834557     0.664470     0.357126  Biso 1.000000     S
   Cd   1.0     0.466813     0.912028     0.798776  Biso 1.000000    Cd
   Cd   1.0     0.966803     0.912026     0.798773  Biso 1.000000    Cd
   Cd   1.0     0.033180     0.087969     0.201236  Biso 1.000000    Cd
   Cd   1.0     0.533171     0.087975     0.201240  Biso 1.000000    Cd
   Cd   1.0     0.249998     0.499999     0.500006  Biso 1.000000    Cd
   Cd   1.0     0.749987     0.499998     0.500008  Biso 1.000000    Cd
