#======================================================================

# CRYSTAL DATA

#----------------------------------------------------------------------

data_VESTA_phase_1


_pd_phase_name                         MOF
_cell_length_a                         20.45100
_cell_length_b                         24.81700
_cell_length_c                         15.84600
_cell_angle_alpha                      89.76000
_cell_angle_beta                       89.79700
_cell_angle_gamma                      96.67700
_symmetry_space_group_name_H-M         "P 1"
_symmetry_Int_Tables_number            1

loop_
_symmetry_equiv_pos_as_xyz
   "x, y, z"

loop_
   _atom_site_label
   _atom_site_occupancy
   _atom_site_fract_x
   _atom_site_fract_y
   _atom_site_fract_z
   _atom_site_adp_type
   _atom_site_B_iso_or_equiv
   _atom_site_type_symbol
    H   1.0     0.302351     0.209867     0.955630  Biso 1.000000     H
    H   1.0     0.302349     0.709776     0.955865  Biso 1.000000     H
    H   1.0     0.802396     0.209742     0.955864  Biso 1.000000     H
    H   1.0     0.802433     0.710513     0.956441  Biso 1.000000     H
    H   1.0     0.209542     0.096787     0.775115  Biso 1.000000     H
    H   1.0     0.209626     0.596763     0.775180  Biso 1.000000     H
    H   1.0     0.709628     0.096772     0.775153  Biso 1.000000     H
    H   1.0     0.708991     0.596848     0.777174  Biso 1.000000     H
    H   1.0     0.418813     0.106161     0.815122  Biso 1.000000     H
    H   1.0     0.418904     0.606227     0.815178  Biso 1.000000     H
    H   1.0     0.918901     0.106171     0.815131  Biso 1.000000     H
    H   1.0     0.918306     0.606048     0.816602  Biso 1.000000     H
    H   1.0     0.447812     0.039910     0.455609  Biso 1.000000     H
    H   1.0     0.447739     0.539094     0.454848  Biso 1.000000     H
    H   1.0     0.947728     0.039054     0.454652  Biso 1.000000     H
    H   1.0     0.947753     0.539405     0.455939  Biso 1.000000     H
    H   1.0     0.041032     0.153099     0.273525  Biso 1.000000     H
    H   1.0     0.040951     0.653023     0.274109  Biso 1.000000     H
    H   1.0     0.540946     0.153586     0.273837  Biso 1.000000     H
    H   1.0     0.541063     0.653105     0.273686  Biso 1.000000     H
    H   1.0     0.331389     0.143230     0.313976  Biso 1.000000     H
    H   1.0     0.331605     0.643273     0.314487  Biso 1.000000     H
    H   1.0     0.831599     0.143320     0.314453  Biso 1.000000     H
    H   1.0     0.831499     0.643146     0.314877  Biso 1.000000     H
    H   1.0     0.197869     0.290216     0.042305  Biso 1.000000     H
    H   1.0     0.197730     0.789255     0.043482  Biso 1.000000     H
    H   1.0     0.697697     0.289320     0.043467  Biso 1.000000     H
    H   1.0     0.697844     0.790053     0.043591  Biso 1.000000     H
    H   1.0     0.291103     0.403495     0.222257  Biso 1.000000     H
    H   1.0     0.291088     0.903038     0.222620  Biso 1.000000     H
    H   1.0     0.791078     0.403026     0.222705  Biso 1.000000     H
    H   1.0     0.790647     0.903306     0.223898  Biso 1.000000     H
    H   1.0     0.081708     0.393924     0.183224  Biso 1.000000     H
    H   1.0     0.081730     0.893647     0.183283  Biso 1.000000     H
    H   1.0     0.581752     0.393780     0.183214  Biso 1.000000     H
    H   1.0     0.581461     0.894114     0.183499  Biso 1.000000     H
    H   1.0     0.052167     0.460381     0.544053  Biso 1.000000     H
    H   1.0     0.052027     0.959957     0.543505  Biso 1.000000     H
    H   1.0     0.552114     0.460006     0.543708  Biso 1.000000     H
    H   1.0     0.552049     0.960172     0.543481  Biso 1.000000     H
    H   1.0     0.459181     0.346602     0.726015  Biso 1.000000     H
    H   1.0     0.459034     0.846572     0.725436  Biso 1.000000     H
    H   1.0     0.959019     0.346813     0.725990  Biso 1.000000     H
    H   1.0     0.959160     0.846587     0.725916  Biso 1.000000     H
    H   1.0     0.168494     0.356792     0.685298  Biso 1.000000     H
    H   1.0     0.168633     0.856767     0.685121  Biso 1.000000     H
    H   1.0     0.668684     0.356833     0.685418  Biso 1.000000     H
    H   1.0     0.668478     0.856526     0.684452  Biso 1.000000     H
    C   1.0     0.428118     0.185889     0.932808  Biso 1.000000     C
    C   1.0     0.428169     0.685941     0.932819  Biso 1.000000     C
    C   1.0     0.928196     0.185886     0.932818  Biso 1.000000     C
    C   1.0     0.928087     0.686186     0.933396  Biso 1.000000     C
    C   1.0     0.185977     0.176723     0.884439  Biso 1.000000     C
    C   1.0     0.186009     0.676683     0.884476  Biso 1.000000     C
    C   1.0     0.686040     0.176683     0.884474  Biso 1.000000     C
    C   1.0     0.685880     0.677323     0.885930  Biso 1.000000     C
    C   1.0     0.318938     0.053406     0.725565  Biso 1.000000     C
    C   1.0     0.319010     0.553357     0.725757  Biso 1.000000     C
    C   1.0     0.818999     0.053355     0.725687  Biso 1.000000     C
    C   1.0     0.818537     0.553223     0.727682  Biso 1.000000     C
    C   1.0     0.367346     0.160193     0.891049  Biso 1.000000     C
    C   1.0     0.367388     0.660211     0.891135  Biso 1.000000     C
    C   1.0     0.867418     0.160170     0.891110  Biso 1.000000     C
    C   1.0     0.867144     0.660447     0.892154  Biso 1.000000     C
    C   1.0     0.306289     0.177831     0.909754  Biso 1.000000     C
    C   1.0     0.306316     0.677804     0.909885  Biso 1.000000     C
    C   1.0     0.806351     0.177772     0.909877  Biso 1.000000     C
    C   1.0     0.806200     0.678285     0.910848  Biso 1.000000     C
    C   1.0     0.249673     0.155258     0.867497  Biso 1.000000     C
    C   1.0     0.249719     0.655234     0.867578  Biso 1.000000     C
    C   1.0     0.749745     0.155223     0.867570  Biso 1.000000     C
    C   1.0     0.749441     0.655614     0.869000  Biso 1.000000     C
    C   1.0     0.253620     0.114337     0.807892  Biso 1.000000     C
    C   1.0     0.253693     0.614323     0.807970  Biso 1.000000     C
    C   1.0     0.753701     0.114315     0.807948  Biso 1.000000     C
    C   1.0     0.753160     0.614435     0.809727  Biso 1.000000     C
    C   1.0     0.314568     0.096435     0.789664  Biso 1.000000     C
    C   1.0     0.314653     0.596438     0.789759  Biso 1.000000     C
    C   1.0     0.814652     0.096420     0.789721  Biso 1.000000     C
    C   1.0     0.814033     0.596388     0.791501  Biso 1.000000     C
    C   1.0     0.371443     0.119648     0.830591  Biso 1.000000     C
    C   1.0     0.371519     0.619683     0.830658  Biso 1.000000     C
    C   1.0     0.871527     0.119641     0.830629  Biso 1.000000     C
    C   1.0     0.871016     0.619672     0.832081  Biso 1.000000     C
    C   1.0     0.321991     0.063245     0.432606  Biso 1.000000     C
    C   1.0     0.322046     0.563066     0.432702  Biso 1.000000     C
    C   1.0     0.822049     0.063097     0.432651  Biso 1.000000     C
    C   1.0     0.822018     0.563212     0.433521  Biso 1.000000     C
    C   1.0     0.064253     0.072440     0.382751  Biso 1.000000     C
    C   1.0     0.064249     0.572662     0.383864  Biso 1.000000     C
    C   1.0     0.564357     0.073440     0.384023  Biso 1.000000     C
    C   1.0     0.564272     0.572459     0.382924  Biso 1.000000     C
    C   1.0     0.431365     0.196702     0.224224  Biso 1.000000     C
    C   1.0     0.431525     0.696535     0.224470  Biso 1.000000     C
    C   1.0     0.931503     0.196556     0.224408  Biso 1.000000     C
    C   1.0     0.931402     0.696366     0.224678  Biso 1.000000     C
    C   1.0     0.382791     0.089292     0.390430  Biso 1.000000     C
    C   1.0     0.382878     0.588978     0.390411  Biso 1.000000     C
    C   1.0     0.882869     0.088978     0.390301  Biso 1.000000     C
    C   1.0     0.882842     0.589071     0.391147  Biso 1.000000     C
    C   1.0     0.443911     0.071954     0.409356  Biso 1.000000     C
    C   1.0     0.443911     0.571315     0.408872  Biso 1.000000     C
    C   1.0     0.943896     0.071284     0.408696  Biso 1.000000     C
    C   1.0     0.943893     0.571507     0.409768  Biso 1.000000     C
    C   1.0     0.500661     0.094804     0.366855  Biso 1.000000     C
    C   1.0     0.500664     0.594114     0.366306  Biso 1.000000     C
    C   1.0     0.000000     0.094090     0.366131  Biso 1.000000     C
    C   1.0     0.000000     0.594233     0.367078  Biso 1.000000     C
    C   1.0     0.496784     0.135804     0.306844  Biso 1.000000     C
    C   1.0     0.496878     0.635349     0.306670  Biso 1.000000     C
    C   1.0     0.996857     0.135335     0.306517  Biso 1.000000     C
    C   1.0     0.996785     0.635314     0.307174  Biso 1.000000     C
    C   1.0     0.435771     0.153474     0.288505  Biso 1.000000     C
    C   1.0     0.435935     0.653246     0.288649  Biso 1.000000     C
    C   1.0     0.935916     0.153253     0.288553  Biso 1.000000     C
    C   1.0     0.935827     0.653155     0.289028  Biso 1.000000     C
    C   1.0     0.378770     0.129912     0.329611  Biso 1.000000     C
    C   1.0     0.378934     0.629760     0.329842  Biso 1.000000     C
    C   1.0     0.878920     0.129773     0.329757  Biso 1.000000     C
    C   1.0     0.878850     0.629702     0.330319  Biso 1.000000     C
    C   1.0     0.072026     0.313873     0.066314  Biso 1.000000     C
    C   1.0     0.072044     0.813396     0.066560  Biso 1.000000     C
    C   1.0     0.571995     0.313570     0.066510  Biso 1.000000     C
    C   1.0     0.571964     0.814040     0.066744  Biso 1.000000     C
    C   1.0     0.314401     0.323515     0.112649  Biso 1.000000     C
    C   1.0     0.314249     0.822577     0.113939  Biso 1.000000     C
    C   1.0     0.814235     0.322591     0.113942  Biso 1.000000     C
    C   1.0     0.814165     0.823159     0.115063  Biso 1.000000     C
    C   1.0     0.181476     0.446810     0.272198  Biso 1.000000     C
    C   1.0     0.181514     0.946627     0.272122  Biso 1.000000     C
    C   1.0     0.681514     0.446654     0.272169  Biso 1.000000     C
    C   1.0     0.681201     0.947005     0.272653  Biso 1.000000     C
    C   1.0     0.132994     0.339840     0.107235  Biso 1.000000     C
    C   1.0     0.132945     0.839250     0.107787  Biso 1.000000     C
    C   1.0     0.632937     0.339364     0.107722  Biso 1.000000     C
    C   1.0     0.632863     0.839838     0.108009  Biso 1.000000     C
    C   1.0     0.194020     0.322288     0.088144  Biso 1.000000     C
    C   1.0     0.193924     0.821491     0.089052  Biso 1.000000     C
    C   1.0     0.693901     0.321555     0.089040  Biso 1.000000     C
    C   1.0     0.693901     0.822138     0.089384  Biso 1.000000     C
    C   1.0     0.250768     0.345004     0.129967  Biso 1.000000     C
    C   1.0     0.250661     0.844221     0.130886  Biso 1.000000     C
    C   1.0     0.750647     0.344248     0.130904  Biso 1.000000     C
    C   1.0     0.750506     0.844738     0.131659  Biso 1.000000     C
    C   1.0     0.246954     0.385937     0.189631  Biso 1.000000     C
    C   1.0     0.246914     0.885420     0.190107  Biso 1.000000     C
    C   1.0     0.746910     0.385436     0.190151  Biso 1.000000     C
    C   1.0     0.746594     0.885785     0.191040  Biso 1.000000     C
    C   1.0     0.186025     0.403809     0.208101  Biso 1.000000     C
    C   1.0     0.186018     0.903420     0.208352  Biso 1.000000     C
    C   1.0     0.686025     0.403469     0.208368  Biso 1.000000     C
    C   1.0     0.685683     0.903815     0.208956  Biso 1.000000     C
    C   1.0     0.129055     0.380477     0.167535  Biso 1.000000     C
    C   1.0     0.129043     0.880065     0.167800  Biso 1.000000     C
    C   1.0     0.629054     0.380167     0.167760  Biso 1.000000     C
    C   1.0     0.628810     0.880557     0.168138  Biso 1.000000     C
    C   1.0     0.177934     0.436710     0.566643  Biso 1.000000     C
    C   1.0     0.177920     0.936618     0.566323  Biso 1.000000     C
    C   1.0     0.678003     0.436724     0.566609  Biso 1.000000     C
    C   1.0     0.677878     0.936613     0.566076  Biso 1.000000     C
    C   1.0     0.435690     0.426637     0.615762  Biso 1.000000     C
    C   1.0     0.435631     0.926759     0.615550  Biso 1.000000     C
    C   1.0     0.935687     0.427096     0.616099  Biso 1.000000     C
    C   1.0     0.935647     0.926638     0.615698  Biso 1.000000     C
    C   1.0     0.068608     0.303505     0.775462  Biso 1.000000     C
    C   1.0     0.068751     0.803447     0.775405  Biso 1.000000     C
    C   1.0     0.568761     0.303443     0.775511  Biso 1.000000     C
    C   1.0     0.568628     0.803385     0.774971  Biso 1.000000     C
    C   1.0     0.117116     0.410808     0.608973  Biso 1.000000     C
    C   1.0     0.117131     0.910633     0.608646  Biso 1.000000     C
    C   1.0     0.617215     0.410710     0.608922  Biso 1.000000     C
    C   1.0     0.617056     0.910580     0.608254  Biso 1.000000     C
    C   1.0     0.056048     0.428316     0.590282  Biso 1.000000     C
    C   1.0     0.056002     0.927993     0.589878  Biso 1.000000     C
    C   1.0     0.556079     0.428042     0.590084  Biso 1.000000     C
    C   1.0     0.555969     0.928060     0.589619  Biso 1.000000     C
    C   1.0    -0.000669     0.405562     0.632955  Biso 1.000000     C
    C   1.0    -0.000664     0.905233     0.632670  Biso 1.000000     C
    C   1.0     0.499393     0.405269     0.632815  Biso 1.000000     C
    C   1.0     0.499289     0.905273     0.632345  Biso 1.000000     C
    C   1.0     0.003185     0.364524     0.692927  Biso 1.000000     C
    C   1.0     0.003283     0.864303     0.692768  Biso 1.000000     C
    C   1.0     0.503319     0.364330     0.692905  Biso 1.000000     C
    C   1.0     0.503183     0.864256     0.692308  Biso 1.000000     C
    C   1.0     0.064156     0.346718     0.711112  Biso 1.000000     C
    C   1.0     0.064300     0.846598     0.710970  Biso 1.000000     C
    C   1.0     0.564334     0.346638     0.711151  Biso 1.000000     C
    C   1.0     0.564162     0.846460     0.710415  Biso 1.000000     C
    C   1.0     0.121128     0.370198     0.669831  Biso 1.000000     C
    C   1.0     0.121231     0.870096     0.669619  Biso 1.000000     C
    C   1.0     0.621288     0.370155     0.669865  Biso 1.000000     C
    C   1.0     0.621100     0.869929     0.669047  Biso 1.000000     C
    O   1.0     0.483887     0.173964     0.907433  Biso 1.000000     O
    O   1.0     0.483925     0.674042     0.907417  Biso 1.000000     O
    O   1.0     0.983964     0.173965     0.907430  Biso 1.000000     O
    O   1.0     0.983740     0.674188     0.907672  Biso 1.000000     O
    O   1.0     0.422571     0.219791     0.992274  Biso 1.000000     O
    O   1.0     0.422646     0.719876     0.992271  Biso 1.000000     O
    O   1.0     0.922666     0.219824     0.992240  Biso 1.000000     O
    O   1.0     0.922750     0.720136     0.992823  Biso 1.000000     O
    O   1.0     0.183135     0.213219     0.941036  Biso 1.000000     O
    O   1.0     0.183136     0.713199     0.941021  Biso 1.000000     O
    O   1.0     0.683167     0.213194     0.941035  Biso 1.000000     O
    O   1.0     0.683514     0.714928     0.940809  Biso 1.000000     O
    O   1.0     0.134457     0.160168     0.841076  Biso 1.000000     O
    O   1.0     0.134506     0.660104     0.841080  Biso 1.000000     O
    O   1.0     0.634541     0.160116     0.841077  Biso 1.000000     O
    O   1.0     0.633890     0.659829     0.844096  Biso 1.000000     O
    O   1.0     0.266522     0.030153     0.690984  Biso 1.000000     O
    O   1.0     0.266554     0.529975     0.691466  Biso 1.000000     O
    O   1.0     0.766548     0.030008     0.691337  Biso 1.000000     O
    O   1.0     0.766307     0.530141     0.692447  Biso 1.000000     O
    O   1.0     0.375462     0.039625     0.704266  Biso 1.000000     O
    O   1.0     0.375535     0.539653     0.704272  Biso 1.000000     O
    O   1.0     0.875520     0.039632     0.704231  Biso 1.000000     O
    O   1.0     0.875130     0.539259     0.707177  Biso 1.000000     O
    O   1.0     0.266136     0.074403     0.406754  Biso 1.000000     O
    O   1.0     0.266211     0.574317     0.406899  Biso 1.000000     O
    O   1.0     0.766214     0.074406     0.406928  Biso 1.000000     O
    O   1.0     0.766222     0.574203     0.407186  Biso 1.000000     O
    O   1.0     0.327661     0.029839     0.493041  Biso 1.000000     O
    O   1.0     0.327675     0.529709     0.493207  Biso 1.000000     O
    O   1.0     0.827681     0.029752     0.493162  Biso 1.000000     O
    O   1.0     0.827598     0.530233     0.494585  Biso 1.000000     O
    O   1.0     0.066441     0.034663     0.437845  Biso 1.000000     O
    O   1.0     0.066711     0.535381     0.439744  Biso 1.000000     O
    O   1.0     0.566924     0.036651     0.440641  Biso 1.000000     O
    O   1.0     0.566465     0.534711     0.438064  Biso 1.000000     O
    O   1.0     0.116369     0.090080     0.340596  Biso 1.000000     O
    O   1.0     0.116118     0.589889     0.340876  Biso 1.000000     O
    O   1.0     0.616129     0.090235     0.340563  Biso 1.000000     O
    O   1.0     0.616369     0.590051     0.340687  Biso 1.000000     O
    O   1.0     0.483689     0.219919     0.188672  Biso 1.000000     O
    O   1.0     0.483857     0.719776     0.188870  Biso 1.000000     O
    O   1.0     0.983838     0.219809     0.188837  Biso 1.000000     O
    O   1.0     0.983701     0.719638     0.189093  Biso 1.000000     O
    O   1.0     0.374806     0.210646     0.203715  Biso 1.000000     O
    O   1.0     0.374993     0.710549     0.204086  Biso 1.000000     O
    O   1.0     0.874973     0.210570     0.204030  Biso 1.000000     O
    O   1.0     0.874838     0.710327     0.204225  Biso 1.000000     O
    O   1.0     0.016390     0.325803     0.092141  Biso 1.000000     O
    O   1.0     0.016335     0.825160     0.092410  Biso 1.000000     O
    O   1.0     0.516332     0.325533     0.092204  Biso 1.000000     O
    O   1.0     0.516292     0.825978     0.092394  Biso 1.000000     O
    O   1.0     0.077312     0.279761     0.007062  Biso 1.000000     O
    O   1.0     0.077456     0.779556     0.007018  Biso 1.000000     O
    O   1.0     0.577328     0.279591     0.007102  Biso 1.000000     O
    O   1.0     0.577304     0.779987     0.007418  Biso 1.000000     O
    O   1.0     0.317102     0.286857     0.056301  Biso 1.000000     O
    O   1.0     0.316601     0.784957     0.059088  Biso 1.000000     O
    O   1.0     0.816579     0.284977     0.059078  Biso 1.000000     O
    O   1.0     0.816997     0.786519     0.058708  Biso 1.000000     O
    O   1.0     0.366055     0.340169     0.155752  Biso 1.000000     O
    O   1.0     0.366245     0.840113     0.155731  Biso 1.000000     O
    O   1.0     0.866239     0.340112     0.155731  Biso 1.000000     O
    O   1.0     0.865634     0.839731     0.158527  Biso 1.000000     O
    O   1.0     0.233699     0.469831     0.307551  Biso 1.000000     O
    O   1.0     0.233750     0.969698     0.307415  Biso 1.000000     O
    O   1.0     0.733744     0.469713     0.307488  Biso 1.000000     O
    O   1.0     0.733492     0.970054     0.307774  Biso 1.000000     O
    O   1.0     0.124885     0.460720     0.292811  Biso 1.000000     O
    O   1.0     0.124950     0.960646     0.292588  Biso 1.000000     O
    O   1.0     0.624945     0.460653     0.292656  Biso 1.000000     O
    O   1.0     0.624630     0.960992     0.293178  Biso 1.000000     O
    O   1.0     0.233728     0.425574     0.592762  Biso 1.000000     O
    O   1.0     0.233720     0.925621     0.592635  Biso 1.000000     O
    O   1.0     0.733838     0.425757     0.592853  Biso 1.000000     O
    O   1.0     0.733656     0.925674     0.592561  Biso 1.000000     O
    O   1.0     0.172374     0.469868     0.505823  Biso 1.000000     O
    O   1.0     0.172348     0.969681     0.505359  Biso 1.000000     O
    O   1.0     0.672358     0.469824     0.505730  Biso 1.000000     O
    O   1.0     0.672341     0.969667     0.505097  Biso 1.000000     O
    O   1.0     0.433124     0.463364     0.559047  Biso 1.000000     O
    O   1.0     0.433074     0.963550     0.558933  Biso 1.000000     O
    O   1.0     0.933199     0.464252     0.560030  Biso 1.000000     O
    O   1.0     0.933092     0.963382     0.559008  Biso 1.000000     O
    O   1.0     0.383932     0.409895     0.659274  Biso 1.000000     O
    O   1.0     0.383905     0.909993     0.659104  Biso 1.000000     O
    O   1.0     0.883845     0.409986     0.659220  Biso 1.000000     O
    O   1.0     0.883896     0.909904     0.659230  Biso 1.000000     O
    O   1.0     0.016313     0.280196     0.811028  Biso 1.000000     O
    O   1.0     0.016431     0.780184     0.810989  Biso 1.000000     O
    O   1.0     0.516436     0.280161     0.811056  Biso 1.000000     O
    O   1.0     0.516329     0.780311     0.810884  Biso 1.000000     O
    O   1.0     0.125175     0.289563     0.795902  Biso 1.000000     O
    O   1.0     0.125299     0.789518     0.795916  Biso 1.000000     O
    O   1.0     0.625307     0.289500     0.796003  Biso 1.000000     O
    O   1.0     0.625161     0.789401     0.795390  Biso 1.000000     O
    Y   1.0     0.079423     0.228738     0.895393  Biso 1.000000     Y
    Y   1.0     0.079397     0.728635     0.895291  Biso 1.000000     Y
    Y   1.0     0.579431     0.228631     0.895389  Biso 1.000000     Y
    Y   1.0     0.579237     0.729160     0.895734  Biso 1.000000     Y
    Y   1.0     0.170723     0.020364     0.392735  Biso 1.000000     Y
    Y   1.0     0.170637     0.520443     0.393099  Biso 1.000000     Y
    Y   1.0     0.670468     0.020859     0.393133  Biso 1.000000     Y
    Y   1.0     0.670727     0.520345     0.392892  Biso 1.000000     Y
    Y   1.0     0.420625     0.271039     0.103563  Biso 1.000000     Y
    Y   1.0     0.420953     0.770830     0.103892  Biso 1.000000     Y
    Y   1.0     0.920958     0.270841     0.103821  Biso 1.000000     Y
    Y   1.0     0.920613     0.771003     0.104626  Biso 1.000000     Y
    Y   1.0     0.329509     0.479094     0.605825  Biso 1.000000     Y
    Y   1.0     0.329457     0.979199     0.605608  Biso 1.000000     Y
    Y   1.0     0.829414     0.479468     0.607014  Biso 1.000000     Y
    Y   1.0     0.829474     0.979109     0.605740  Biso 1.000000     Y
