#======================================================================

# CRYSTAL DATA

#----------------------------------------------------------------------

data_VESTA_phase_1


_pd_phase_name                         MOF
_cell_length_a                         16.64500
_cell_length_b                         16.81600
_cell_length_c                         27.26000
_cell_angle_alpha                      90.06900
_cell_angle_beta                       90.16000
_cell_angle_gamma                      89.40100
_symmetry_space_group_name_H-M         "P 1"
_symmetry_Int_Tables_number            1

loop_
_symmetry_equiv_pos_as_xyz
   "x, y, z"

loop_
   _atom_site_label
   _atom_site_occupancy
   _atom_site_fract_x
   _atom_site_fract_y
   _atom_site_fract_z
   _atom_site_adp_type
   _atom_site_B_iso_or_equiv
   _atom_site_type_symbol
    H   1.0     0.440731     0.462971     0.404133  Biso 1.000000     H
    H   1.0     0.940811     0.463043     0.404156  Biso 1.000000     H
    H   1.0     0.167412     0.523606     0.470734  Biso 1.000000     H
    H   1.0     0.667330     0.523667     0.470669  Biso 1.000000     H
    H   1.0     0.466412     0.687360     0.464612  Biso 1.000000     H
    H   1.0     0.966579     0.687396     0.464665  Biso 1.000000     H
    H   1.0     0.213069     0.588685     0.672595  Biso 1.000000     H
    H   1.0     0.712818     0.588399     0.672513  Biso 1.000000     H
    H   1.0     0.309455     0.957793     0.598092  Biso 1.000000     H
    H   1.0     0.809398     0.957775     0.598087  Biso 1.000000     H
    H   1.0     0.085902     0.027714     0.529532  Biso 1.000000     H
    H   1.0     0.585858     0.027724     0.529524  Biso 1.000000     H
    H   1.0     0.290688     0.182397     0.536742  Biso 1.000000     H
    H   1.0     0.790648     0.182400     0.536761  Biso 1.000000     H
    H   1.0     0.042529     0.089328     0.325561  Biso 1.000000     H
    H   1.0     0.542505     0.089325     0.325521  Biso 1.000000     H
    H   1.0     0.062217     0.536805     0.905653  Biso 1.000000     H
    H   1.0     0.561951     0.537361     0.905550  Biso 1.000000     H
    H   1.0     0.334460     0.477906     0.970562  Biso 1.000000     H
    H   1.0     0.834564     0.477606     0.970541  Biso 1.000000     H
    H   1.0     0.033970     0.312070     0.964674  Biso 1.000000     H
    H   1.0     0.534032     0.312575     0.964563  Biso 1.000000     H
    H   1.0     0.289983     0.414426     0.173641  Biso 1.000000     H
    H   1.0     0.789816     0.414379     0.173678  Biso 1.000000     H
    H   1.0     0.193414     0.044001     0.097517  Biso 1.000000     H
    H   1.0     0.693371     0.044570     0.097582  Biso 1.000000     H
    H   1.0     0.418543     0.975183     0.031147  Biso 1.000000     H
    H   1.0     0.917942     0.974064     0.031144  Biso 1.000000     H
    H   1.0     0.214634     0.819261     0.036379  Biso 1.000000     H
    H   1.0     0.712806     0.819707     0.036415  Biso 1.000000     H
    H   1.0     0.462476     0.911802     0.826789  Biso 1.000000     H
    H   1.0     0.962450     0.909955     0.827104  Biso 1.000000     H
    H   1.0     0.062867     0.540615     0.595923  Biso 1.000000     H
    H   1.0     0.562904     0.540586     0.595919  Biso 1.000000     H
    H   1.0     0.336218     0.479857     0.529525  Biso 1.000000     H
    H   1.0     0.836202     0.479869     0.529516  Biso 1.000000     H
    H   1.0     0.037151     0.316208     0.535496  Biso 1.000000     H
    H   1.0     0.537174     0.316193     0.535472  Biso 1.000000     H
    H   1.0     0.290134     0.415424     0.325361  Biso 1.000000     H
    H   1.0     0.790051     0.415430     0.325400  Biso 1.000000     H
    H   1.0     0.194378     0.046052     0.402009  Biso 1.000000     H
    H   1.0     0.694398     0.046056     0.402023  Biso 1.000000     H
    H   1.0     0.417906     0.976104     0.470604  Biso 1.000000     H
    H   1.0     0.917958     0.976150     0.470597  Biso 1.000000     H
    H   1.0     0.213152     0.821389     0.463261  Biso 1.000000     H
    H   1.0     0.713260     0.821368     0.463227  Biso 1.000000     H
    H   1.0     0.461967     0.912640     0.675085  Biso 1.000000     H
    H   1.0     0.961964     0.912752     0.675408  Biso 1.000000     H
    H   1.0     0.439855     0.464353     0.095358  Biso 1.000000     H
    H   1.0     0.939496     0.464116     0.095284  Biso 1.000000     H
    H   1.0     0.167284     0.520709     0.029757  Biso 1.000000     H
    H   1.0     0.667485     0.520769     0.029549  Biso 1.000000     H
    H   1.0     0.469685     0.688142     0.035263  Biso 1.000000     H
    H   1.0     0.969454     0.688051     0.035393  Biso 1.000000     H
    H   1.0     0.214947     0.583780     0.824285  Biso 1.000000     H
    H   1.0     0.713589     0.582955     0.824196  Biso 1.000000     H
    H   1.0     0.307877     0.954954     0.903080  Biso 1.000000     H
    H   1.0     0.808394     0.955262     0.902587  Biso 1.000000     H
    H   1.0     0.083610     0.024760     0.970155  Biso 1.000000     H
    H   1.0     0.583824     0.024254     0.969583  Biso 1.000000     H
    H   1.0     0.288114     0.179803     0.964263  Biso 1.000000     H
    H   1.0     0.788299     0.179477     0.964602  Biso 1.000000     H
    H   1.0     0.042416     0.089183     0.173843  Biso 1.000000     H
    H   1.0     0.542404     0.089219     0.173801  Biso 1.000000     H
    H   1.0     0.061369     0.754609     0.751111  Biso 1.000000     H
    H   1.0     0.560914     0.754361     0.750848  Biso 1.000000     H
    H   1.0     0.190791     0.258328     0.249988  Biso 1.000000     H
    H   1.0     0.690774     0.258343     0.249972  Biso 1.000000     H
    H   1.0     0.441813     0.245729     0.249996  Biso 1.000000     H
    H   1.0     0.941759     0.245774     0.250026  Biso 1.000000     H
    H   1.0     0.311890     0.744850     0.750376  Biso 1.000000     H
    H   1.0     0.812494     0.743476     0.749836  Biso 1.000000     H
    C   1.0     0.479477     0.505836     0.422488  Biso 1.000000     C
    C   1.0     0.979570     0.505886     0.422521  Biso 1.000000     C
    C   1.0     0.058689     0.483888     0.434839  Biso 1.000000     C
    C   1.0     0.558615     0.483877     0.434800  Biso 1.000000     C
    C   1.0     0.106246     0.538769     0.459680  Biso 1.000000     C
    C   1.0     0.606151     0.538794     0.459623  Biso 1.000000     C
    C   1.0     0.072595     0.612669     0.471849  Biso 1.000000     C
    C   1.0     0.572471     0.612685     0.471781  Biso 1.000000     C
    C   1.0     0.493616     0.629601     0.456300  Biso 1.000000     C
    C   1.0     0.993760     0.629628     0.456352  Biso 1.000000     C
    C   1.0     0.117536     0.669472     0.503366  Biso 1.000000     C
    C   1.0     0.617436     0.669509     0.503266  Biso 1.000000     C
    C   1.0     0.089600     0.402245     0.424031  Biso 1.000000     C
    C   1.0     0.589562     0.402240     0.424014  Biso 1.000000     C
    C   1.0     0.189984     0.613362     0.706880  Biso 1.000000     C
    C   1.0     0.689515     0.612977     0.706771  Biso 1.000000     C
    C   1.0     0.133926     0.676313     0.705797  Biso 1.000000     C
    C   1.0     0.633578     0.676021     0.705634  Biso 1.000000     C
    C   1.0     0.106788     0.711559     0.658554  Biso 1.000000     C
    C   1.0     0.606678     0.711473     0.658423  Biso 1.000000     C
    C   1.0     0.272223     0.002146     0.579286  Biso 1.000000     C
    C   1.0     0.772167     0.002137     0.579288  Biso 1.000000     C
    C   1.0     0.192969     0.983317     0.566193  Biso 1.000000     C
    C   1.0     0.692917     0.983312     0.566182  Biso 1.000000     C
    C   1.0     0.147190     0.040181     0.541045  Biso 1.000000     C
    C   1.0     0.647139     0.040192     0.541049  Biso 1.000000     C
    C   1.0     0.182845     0.112609     0.529245  Biso 1.000000     C
    C   1.0     0.682814     0.112605     0.529241  Biso 1.000000     C
    C   1.0     0.261856     0.126059     0.545126  Biso 1.000000     C
    C   1.0     0.761814     0.126062     0.545141  Biso 1.000000     C
    C   1.0     0.139960     0.171767     0.497759  Biso 1.000000     C
    C   1.0     0.639937     0.171770     0.497760  Biso 1.000000     C
    C   1.0     0.161055     0.902497     0.576446  Biso 1.000000     C
    C   1.0     0.661004     0.902489     0.576428  Biso 1.000000     C
    C   1.0     0.065389     0.115253     0.291742  Biso 1.000000     C
    C   1.0     0.565369     0.115263     0.291706  Biso 1.000000     C
    C   1.0     0.119916     0.178306     0.293956  Biso 1.000000     C
    C   1.0     0.619892     0.178320     0.293931  Biso 1.000000     C
    C   1.0     0.146546     0.212110     0.341672  Biso 1.000000     C
    C   1.0     0.646534     0.212108     0.341654  Biso 1.000000     C
    C   1.0     0.022926     0.494140     0.923554  Biso 1.000000     C
    C   1.0     0.522736     0.494653     0.923474  Biso 1.000000     C
    C   1.0     0.443735     0.517155     0.935519  Biso 1.000000     C
    C   1.0     0.943925     0.516728     0.935543  Biso 1.000000     C
    C   1.0     0.395585     0.462375     0.959785  Biso 1.000000     C
    C   1.0     0.895688     0.462012     0.959793  Biso 1.000000     C
    C   1.0     0.428582     0.388071     0.971720  Biso 1.000000     C
    C   1.0     0.928603     0.387677     0.971755  Biso 1.000000     C
    C   1.0     0.007366     0.370181     0.956582  Biso 1.000000     C
    C   1.0     0.507354     0.370668     0.956505  Biso 1.000000     C
    C   1.0     0.383119     0.331293     0.002746  Biso 1.000000     C
    C   1.0     0.883059     0.330992     0.002794  Biso 1.000000     C
    C   1.0     0.413692     0.599226     0.925014  Biso 1.000000     C
    C   1.0     0.914057     0.598869     0.925051  Biso 1.000000     C
    C   1.0     0.313440     0.388757     0.207601  Biso 1.000000     C
    C   1.0     0.813310     0.388743     0.207638  Biso 1.000000     C
    C   1.0     0.369278     0.325686     0.205698  Biso 1.000000     C
    C   1.0     0.869174     0.325696     0.205739  Biso 1.000000     C
    C   1.0     0.396120     0.291556     0.158098  Biso 1.000000     C
    C   1.0     0.896022     0.291524     0.158159  Biso 1.000000     C
    C   1.0     0.231269     0.999800     0.079093  Biso 1.000000     C
    C   1.0     0.730846     0.000000     0.079132  Biso 1.000000     C
    C   1.0     0.310614     0.019026     0.066790  Biso 1.000000     C
    C   1.0     0.810300     0.018709     0.066762  Biso 1.000000     C
    C   1.0     0.357159     0.962360     0.042069  Biso 1.000000     C
    C   1.0     0.856456     0.961670     0.042059  Biso 1.000000     C
    C   1.0     0.322141     0.889742     0.029820  Biso 1.000000     C
    C   1.0     0.820867     0.889314     0.029870  Biso 1.000000     C
    C   1.0     0.242995     0.875817     0.045000  Biso 1.000000     C
    C   1.0     0.741584     0.876033     0.045066  Biso 1.000000     C
    C   1.0     0.365968     0.830976     0.998579  Biso 1.000000     C
    C   1.0     0.863889     0.829858     0.998691  Biso 1.000000     C
    C   1.0     0.342062     0.100015     0.077248  Biso 1.000000     C
    C   1.0     0.842378     0.099434     0.077238  Biso 1.000000     C
    C   1.0     0.439151     0.886333     0.792837  Biso 1.000000     C
    C   1.0     0.939256     0.884765     0.793036  Biso 1.000000     C
    C   1.0     0.383731     0.824031     0.794760  Biso 1.000000     C
    C   1.0     0.884135     0.822203     0.794603  Biso 1.000000     C
    C   1.0     0.357065     0.790781     0.842503  Biso 1.000000     C
    C   1.0     0.857012     0.788076     0.841958  Biso 1.000000     C
    C   1.0     0.024100     0.497749     0.577590  Biso 1.000000     C
    C   1.0     0.524137     0.497727     0.577579  Biso 1.000000     C
    C   1.0     0.444987     0.519703     0.565303  Biso 1.000000     C
    C   1.0     0.944965     0.519729     0.565295  Biso 1.000000     C
    C   1.0     0.397414     0.464754     0.540547  Biso 1.000000     C
    C   1.0     0.897394     0.464769     0.540547  Biso 1.000000     C
    C   1.0     0.431088     0.390855     0.528387  Biso 1.000000     C
    C   1.0     0.931070     0.390866     0.528397  Biso 1.000000     C
    C   1.0     0.009943     0.373966     0.543813  Biso 1.000000     C
    C   1.0     0.509968     0.373949     0.543797  Biso 1.000000     C
    C   1.0     0.385919     0.334062     0.497016  Biso 1.000000     C
    C   1.0     0.885909     0.334061     0.497030  Biso 1.000000     C
    C   1.0     0.414073     0.601370     0.576063  Biso 1.000000     C
    C   1.0     0.914050     0.601403     0.576041  Biso 1.000000     C
    C   1.0     0.313539     0.389331     0.291555  Biso 1.000000     C
    C   1.0     0.813454     0.389337     0.291594  Biso 1.000000     C
    C   1.0     0.369409     0.326291     0.293837  Biso 1.000000     C
    C   1.0     0.869350     0.326317     0.293874  Biso 1.000000     C
    C   1.0     0.396181     0.292837     0.341681  Biso 1.000000     C
    C   1.0     0.896158     0.292871     0.341713  Biso 1.000000     C
    C   1.0     0.231610     0.000000     0.420819  Biso 1.000000     C
    C   1.0     0.731648     0.000000     0.420821  Biso 1.000000     C
    C   1.0     0.310850     0.020524     0.433929  Biso 1.000000     C
    C   1.0     0.810880     0.020550     0.433936  Biso 1.000000     C
    C   1.0     0.356628     0.963624     0.459077  Biso 1.000000     C
    C   1.0     0.856681     0.963655     0.459073  Biso 1.000000     C
    C   1.0     0.320993     0.891173     0.470849  Biso 1.000000     C
    C   1.0     0.821072     0.891190     0.470837  Biso 1.000000     C
    C   1.0     0.241991     0.877739     0.454920  Biso 1.000000     C
    C   1.0     0.742074     0.877738     0.454904  Biso 1.000000     C
    C   1.0     0.363788     0.831881     0.502326  Biso 1.000000     C
    C   1.0     0.863879     0.831888     0.502303  Biso 1.000000     C
    C   1.0     0.342860     0.101305     0.423627  Biso 1.000000     C
    C   1.0     0.842879     0.101332     0.423632  Biso 1.000000     C
    C   1.0     0.438931     0.886746     0.708864  Biso 1.000000     C
    C   1.0     0.939008     0.886324     0.709050  Biso 1.000000     C
    C   1.0     0.383731     0.824290     0.706537  Biso 1.000000     C
    C   1.0     0.883995     0.823737     0.706416  Biso 1.000000     C
    C   1.0     0.356990     0.791008     0.658675  Biso 1.000000     C
    C   1.0     0.857101     0.790889     0.658492  Biso 1.000000     C
    C   1.0     0.479384     0.506474     0.077170  Biso 1.000000     C
    C   1.0     0.979064     0.506279     0.077163  Biso 1.000000     C
    C   1.0     0.057814     0.482889     0.065149  Biso 1.000000     C
    C   1.0     0.558113     0.483048     0.065104  Biso 1.000000     C
    C   1.0     0.106369     0.536908     0.040596  Biso 1.000000     C
    C   1.0     0.606607     0.537005     0.040447  Biso 1.000000     C
    C   1.0     0.074028     0.611329     0.028334  Biso 1.000000     C
    C   1.0     0.574264     0.611428     0.028181  Biso 1.000000     C
    C   1.0     0.495809     0.629874     0.043499  Biso 1.000000     C
    C   1.0     0.995541     0.629751     0.043598  Biso 1.000000     C
    C   1.0     0.120347     0.666841     0.997014  Biso 1.000000     C
    C   1.0     0.620465     0.666878     0.996716  Biso 1.000000     C
    C   1.0     0.087301     0.400718     0.075869  Biso 1.000000     C
    C   1.0     0.587524     0.400856     0.075841  Biso 1.000000     C
    C   1.0     0.190915     0.610460     0.790778  Biso 1.000000     C
    C   1.0     0.689860     0.609816     0.790665  Biso 1.000000     C
    C   1.0     0.134621     0.673048     0.793890  Biso 1.000000     C
    C   1.0     0.633732     0.672559     0.793704  Biso 1.000000     C
    C   1.0     0.108839     0.704767     0.842387  Biso 1.000000     C
    C   1.0     0.607853     0.704485     0.842113  Biso 1.000000     C
    C   1.0     0.270369    -0.000718     0.921654  Biso 1.000000     C
    C   1.0     0.770819    -0.000622     0.921301  Biso 1.000000     C
    C   1.0     0.191028     0.980491     0.934177  Biso 1.000000     C
    C   1.0     0.691442     0.980381     0.933607  Biso 1.000000     C
    C   1.0     0.144962     0.037349     0.959074  Biso 1.000000     C
    C   1.0     0.645229     0.036996     0.958667  Biso 1.000000     C
    C   1.0     0.180330     0.109810     0.971167  Biso 1.000000     C
    C   1.0     0.680484     0.109423     0.971066  Biso 1.000000     C
    C   1.0     0.259443     0.123366     0.955748  Biso 1.000000     C
    C   1.0     0.759686     0.123109     0.955845  Biso 1.000000     C
    C   1.0     0.136989     0.168882     0.002455  Biso 1.000000     C
    C   1.0     0.637064     0.168506     0.002377  Biso 1.000000     C
    C   1.0     0.158504     0.900025     0.923622  Biso 1.000000     C
    C   1.0     0.659144     0.899929     0.922522  Biso 1.000000     C
    C   1.0     0.065311     0.115189     0.207751  Biso 1.000000     C
    C   1.0     0.565297     0.115217     0.207712  Biso 1.000000     C
    C   1.0     0.119793     0.178255     0.205776  Biso 1.000000     C
    C   1.0     0.619781     0.178282     0.205748  Biso 1.000000     C
    C   1.0     0.146432     0.212090     0.158249  Biso 1.000000     C
    C   1.0     0.646496     0.212098     0.158235  Biso 1.000000     C
    C   1.0     0.104964     0.705922     0.750353  Biso 1.000000     C
    C   1.0     0.604402     0.705581     0.750144  Biso 1.000000     C
    C   1.0     0.148327     0.209548     0.249921  Biso 1.000000     C
    C   1.0     0.648308     0.209565     0.249899  Biso 1.000000     C
    C   1.0     0.398433     0.294611     0.249861  Biso 1.000000     C
    C   1.0     0.898367     0.294645     0.249899  Biso 1.000000     C
    C   1.0     0.354926     0.793147     0.750545  Biso 1.000000     C
    C   1.0     0.855382     0.791891     0.750239  Biso 1.000000     C
    N   1.0     0.447372     0.577764     0.431944  Biso 1.000000     N
    N   1.0     0.947500     0.577828     0.431978  Biso 1.000000     N
    N   1.0     0.306292     0.072473     0.569975  Biso 1.000000     N
    N   1.0     0.806241     0.072466     0.569988  Biso 1.000000     N
    N   1.0     0.054238     0.421784     0.932743  Biso 1.000000     N
    N   1.0     0.554137     0.422326     0.932645  Biso 1.000000     N
    N   1.0     0.197832     0.929198     0.069457  Biso 1.000000     N
    N   1.0     0.696851     0.929733     0.069537  Biso 1.000000     N
    N   1.0     0.056212     0.425828     0.568130  Biso 1.000000     N
    N   1.0     0.556243     0.425807     0.568112  Biso 1.000000     N
    N   1.0     0.197558     0.931351     0.430090  Biso 1.000000     N
    N   1.0     0.697618     0.931343     0.430085  Biso 1.000000     N
    N   1.0     0.448651     0.578978     0.067721  Biso 1.000000     N
    N   1.0     0.948340     0.578803     0.067741  Biso 1.000000     N
    N   1.0     0.304213     0.069724     0.931235  Biso 1.000000     N
    N   1.0     0.804606     0.069717     0.931230  Biso 1.000000     N
    N   1.0     0.217987     0.580094     0.748319  Biso 1.000000     N
    N   1.0     0.717130     0.579498     0.748243  Biso 1.000000     N
    N   1.0     0.038681     0.083297     0.249694  Biso 1.000000     N
    N   1.0     0.538658     0.083326     0.249654  Biso 1.000000     N
    N   1.0     0.286129     0.420988     0.249484  Biso 1.000000     N
    N   1.0     0.786007     0.420970     0.249525  Biso 1.000000     N
    N   1.0     0.466133     0.918120     0.750952  Biso 1.000000     N
    N   1.0     0.966113     0.917202     0.751307  Biso 1.000000     N
    O   1.0     0.048346     0.760563     0.658197  Biso 1.000000     O
    O   1.0     0.548332     0.760596     0.658114  Biso 1.000000     O
    O   1.0     0.142172     0.690662     0.618421  Biso 1.000000     O
    O   1.0     0.642094     0.690638     0.618292  Biso 1.000000     O
    O   1.0     0.083572     0.735713     0.515140  Biso 1.000000     O
    O   1.0     0.583493     0.735735     0.515086  Biso 1.000000     O
    O   1.0     0.187259     0.649701     0.518309  Biso 1.000000     O
    O   1.0     0.687211     0.649751     0.518131  Biso 1.000000     O
    O   1.0     0.038214     0.347180     0.418987  Biso 1.000000     O
    O   1.0     0.538198     0.347156     0.418973  Biso 1.000000     O
    O   1.0     0.165292     0.391428     0.421219  Biso 1.000000     O
    O   1.0     0.665257     0.391443     0.421211  Biso 1.000000     O
    O   1.0     0.204638     0.260352     0.342303  Biso 1.000000     O
    O   1.0     0.704631     0.260344     0.342289  Biso 1.000000     O
    O   1.0     0.111130     0.190894     0.381543  Biso 1.000000     O
    O   1.0     0.611126     0.190882     0.381526  Biso 1.000000     O
    O   1.0     0.176589     0.235436     0.485614  Biso 1.000000     O
    O   1.0     0.676571     0.235438     0.485616  Biso 1.000000     O
    O   1.0     0.069080     0.156332     0.483462  Biso 1.000000     O
    O   1.0     0.569059     0.156337     0.483456  Biso 1.000000     O
    O   1.0     0.212203     0.846690     0.583198  Biso 1.000000     O
    O   1.0     0.712167     0.846691     0.583166  Biso 1.000000     O
    O   1.0     0.085272     0.892666     0.577226  Biso 1.000000     O
    O   1.0     0.585220     0.892654     0.577213  Biso 1.000000     O
    O   1.0     0.454924     0.242937     0.157507  Biso 1.000000     O
    O   1.0     0.954780     0.242832     0.157625  Biso 1.000000     O
    O   1.0     0.360168     0.312788     0.118157  Biso 1.000000     O
    O   1.0     0.860144     0.312737     0.118192  Biso 1.000000     O
    O   1.0     0.417062     0.265281     0.015088  Biso 1.000000     O
    O   1.0     0.916880     0.264914     0.015162  Biso 1.000000     O
    O   1.0     0.312930     0.350710     0.016802  Biso 1.000000     O
    O   1.0     0.812909     0.350577     0.016837  Biso 1.000000     O
    O   1.0     0.465664     0.653828     0.920778  Biso 1.000000     O
    O   1.0     0.966220     0.653336     0.920949  Biso 1.000000     O
    O   1.0     0.338191     0.610885     0.921626  Biso 1.000000     O
    O   1.0     0.838627     0.610743     0.921552  Biso 1.000000     O
    O   1.0     0.298873     0.742810     0.843378  Biso 1.000000     O
    O   1.0     0.798944     0.739940     0.842093  Biso 1.000000     O
    O   1.0     0.392975     0.812423     0.882329  Biso 1.000000     O
    O   1.0     0.892058     0.809112     0.882241  Biso 1.000000     O
    O   1.0     0.329738     0.767476     0.985441  Biso 1.000000     O
    O   1.0     0.826454     0.767123     0.985642  Biso 1.000000     O
    O   1.0     0.437261     0.846529     0.985335  Biso 1.000000     O
    O   1.0     0.935523     0.843974     0.985455  Biso 1.000000     O
    O   1.0     0.290758     0.155868     0.083290  Biso 1.000000     O
    O   1.0     0.791539     0.155766     0.083266  Biso 1.000000     O
    O   1.0     0.417790     0.109949     0.078780  Biso 1.000000     O
    O   1.0     0.918217     0.108600     0.078816  Biso 1.000000     O
    O   1.0     0.454214     0.243324     0.342729  Biso 1.000000     O
    O   1.0     0.954198     0.243366     0.342758  Biso 1.000000     O
    O   1.0     0.360725     0.315692     0.381371  Biso 1.000000     O
    O   1.0     0.860700     0.315713     0.381403  Biso 1.000000     O
    O   1.0     0.419881     0.268018     0.484790  Biso 1.000000     O
    O   1.0     0.919890     0.268029     0.484800  Biso 1.000000     O
    O   1.0     0.315855     0.353633     0.482633  Biso 1.000000     O
    O   1.0     0.815840     0.353617     0.482649  Biso 1.000000     O
    O   1.0     0.465477     0.656430     0.581070  Biso 1.000000     O
    O   1.0     0.965470     0.656440     0.581086  Biso 1.000000     O
    O   1.0     0.338400     0.612243     0.578856  Biso 1.000000     O
    O   1.0     0.838375     0.612298     0.578790  Biso 1.000000     O
    O   1.0     0.298726     0.742957     0.657961  Biso 1.000000     O
    O   1.0     0.798771     0.742919     0.657723  Biso 1.000000     O
    O   1.0     0.392308     0.812388     0.618777  Biso 1.000000     O
    O   1.0     0.892395     0.812476     0.618651  Biso 1.000000     O
    O   1.0     0.326980     0.768223     0.514331  Biso 1.000000     O
    O   1.0     0.827051     0.768233     0.514293  Biso 1.000000     O
    O   1.0     0.434627     0.847140     0.516745  Biso 1.000000     O
    O   1.0     0.934717     0.847125     0.516726  Biso 1.000000     O
    O   1.0     0.291840     0.157250     0.416799  Biso 1.000000     O
    O   1.0     0.791855     0.157272     0.416800  Biso 1.000000     O
    O   1.0     0.418675     0.110927     0.422892  Biso 1.000000     O
    O   1.0     0.918694     0.110947     0.422889  Biso 1.000000     O
    O   1.0     0.050582     0.753963     0.844499  Biso 1.000000     O
    O   1.0     0.549394     0.753437     0.844121  Biso 1.000000     O
    O   1.0     0.146074     0.680771     0.881209  Biso 1.000000     O
    O   1.0     0.645348     0.680950     0.880977  Biso 1.000000     O
    O   1.0     0.087337     0.732860     0.983628  Biso 1.000000     O
    O   1.0     0.587410     0.732978     0.983483  Biso 1.000000     O
    O   1.0     0.190571     0.646492     0.983627  Biso 1.000000     O
    O   1.0     0.690496     0.646360     0.983111  Biso 1.000000     O
    O   1.0     0.034888     0.346632     0.080557  Biso 1.000000     O
    O   1.0     0.535001     0.346872     0.080604  Biso 1.000000     O
    O   1.0     0.162822     0.388649     0.078917  Biso 1.000000     O
    O   1.0     0.663011     0.388605     0.078852  Biso 1.000000     O
    O   1.0     0.204674     0.260124     0.157937  Biso 1.000000     O
    O   1.0     0.704749     0.260118     0.157953  Biso 1.000000     O
    O   1.0     0.111108     0.191146     0.118086  Biso 1.000000     O
    O   1.0     0.611277     0.191157     0.118028  Biso 1.000000     O
    O   1.0     0.173307     0.232831     0.014570  Biso 1.000000     O
    O   1.0     0.673376     0.232479     0.014532  Biso 1.000000     O
    O   1.0     0.066229     0.153143     0.016639  Biso 1.000000     O
    O   1.0     0.566274     0.152886     0.016540  Biso 1.000000     O
    O   1.0     0.208724     0.843424     0.916777  Biso 1.000000     O
    O   1.0     0.709482     0.843539     0.915313  Biso 1.000000     O
    O   1.0     0.082553     0.891299     0.922775  Biso 1.000000     O
    O   1.0     0.583209     0.891072     0.921568  Biso 1.000000     O
    Y   1.0     0.507588     0.782774     0.576611  Biso 1.000000     Y
    Y   1.0     0.000000     0.782761     0.576622  Biso 1.000000     Y
    Y   1.0     0.247310     0.283557     0.423217  Biso 1.000000     Y
    Y   1.0     0.747284     0.283566     0.423222  Biso 1.000000     Y
    Y   1.0    -0.005234     0.219396     0.076386  Biso 1.000000     Y
    Y   1.0     0.495058     0.219734     0.076241  Biso 1.000000     Y
    Y   1.0     0.256238     0.718362     0.923992  Biso 1.000000     Y
    Y   1.0     0.756172     0.717953     0.923123  Biso 1.000000     Y
    Y   1.0    -0.003591     0.220777     0.423746  Biso 1.000000     Y
    Y   1.0     0.496394     0.220756     0.423729  Biso 1.000000     Y
    Y   1.0     0.256652     0.720455     0.576944  Biso 1.000000     Y
    Y   1.0     0.756534     0.720438     0.576786  Biso 1.000000     Y
    Y   1.0     0.506657     0.780641     0.924469  Biso 1.000000     Y
    Y   1.0     0.000000     0.780261     0.924644  Biso 1.000000     Y
    Y   1.0     0.245324     0.281462     0.076649  Biso 1.000000     Y
    Y   1.0     0.745345     0.281143     0.076634  Biso 1.000000     Y
