#======================================================================

# CRYSTAL DATA

#----------------------------------------------------------------------

data_VESTA_phase_1


_pd_phase_name                         MOF
_cell_length_a                         12.11900
_cell_length_b                         14.54200
_cell_length_c                         15.22900
_cell_angle_alpha                      89.99800
_cell_angle_beta                       89.96500
_cell_angle_gamma                      90.59200
_symmetry_space_group_name_H-M         "P 1"
_symmetry_Int_Tables_number            1

loop_
_symmetry_equiv_pos_as_xyz
   "x, y, z"

loop_
   _atom_site_label
   _atom_site_occupancy
   _atom_site_fract_x
   _atom_site_fract_y
   _atom_site_fract_z
   _atom_site_adp_type
   _atom_site_B_iso_or_equiv
   _atom_site_type_symbol
    H   1.0     0.458854     0.249272     0.726325  Biso 1.000000     H
    H   1.0     0.959024     0.249256     0.726384  Biso 1.000000     H
    H   1.0     0.517570     0.297588     0.577518  Biso 1.000000     H
    H   1.0     0.000000     0.297591     0.577605  Biso 1.000000     H
    H   1.0     0.541704     0.180842     0.459662  Biso 1.000000     H
    H   1.0     0.000000     0.180871     0.459723  Biso 1.000000     H
    H   1.0     0.507869     0.016030     0.490539  Biso 1.000000     H
    H   1.0     0.000000     0.016063     0.490546  Biso 1.000000     H
    H   1.0     0.376722     0.846241     0.741990  Biso 1.000000     H
    H   1.0     0.876692     0.846250     0.741943  Biso 1.000000     H
    H   1.0     0.374952     0.960502     0.863936  Biso 1.000000     H
    H   1.0     0.874899     0.960489     0.863906  Biso 1.000000     H
    H   1.0     0.286556     0.750704     0.226508  Biso 1.000000     H
    H   1.0     0.786695     0.750665     0.226521  Biso 1.000000     H
    H   1.0     0.227616     0.702297     0.077846  Biso 1.000000     H
    H   1.0     0.727821     0.702227     0.077856  Biso 1.000000     H
    H   1.0     0.203166     0.818987     0.959981  Biso 1.000000     H
    H   1.0     0.703353     0.818899     0.959974  Biso 1.000000     H
    H   1.0     0.237040     0.983820     0.990688  Biso 1.000000     H
    H   1.0     0.737143     0.983747     0.990675  Biso 1.000000     H
    H   1.0     0.368684     0.153726     0.241817  Biso 1.000000     H
    H   1.0     0.868688     0.153704     0.241805  Biso 1.000000     H
    H   1.0     0.370633     0.039525     0.363811  Biso 1.000000     H
    H   1.0     0.870639     0.039517     0.363812  Biso 1.000000     H
    H   1.0     0.032363     0.747193     0.765892  Biso 1.000000     H
    H   1.0     0.532225     0.747129     0.765830  Biso 1.000000     H
    H   1.0    -0.025384     0.794135     0.915061  Biso 1.000000     H
    H   1.0     0.474384     0.794072     0.914976  Biso 1.000000     H
    H   1.0    -0.045898     0.676972     0.033322  Biso 1.000000     H
    H   1.0     0.453871     0.676914     0.033243  Biso 1.000000     H
    H   1.0    -0.010009     0.513115     0.002454  Biso 1.000000     H
    H   1.0     0.489824     0.513066     0.002398  Biso 1.000000     H
    H   1.0     0.120574     0.346557     0.750023  Biso 1.000000     H
    H   1.0     0.620542     0.346514     0.750001  Biso 1.000000     H
    H   1.0     0.120247     0.460904     0.628172  Biso 1.000000     H
    H   1.0     0.620224     0.460854     0.628144  Biso 1.000000     H
    H   1.0     0.212492     0.252739     0.265726  Biso 1.000000     H
    H   1.0     0.712602     0.252780     0.265737  Biso 1.000000     H
    H   1.0     0.270384     0.205649     0.414757  Biso 1.000000     H
    H   1.0     0.770549     0.205731     0.414767  Biso 1.000000     H
    H   1.0     0.291361     0.322742     0.532988  Biso 1.000000     H
    H   1.0     0.791515     0.322854     0.532976  Biso 1.000000     H
    H   1.0     0.255641     0.486658     0.502273  Biso 1.000000     H
    H   1.0     0.755718     0.486749     0.502241  Biso 1.000000     H
    H   1.0     0.124677     0.653414     0.250181  Biso 1.000000     H
    H   1.0     0.624615     0.653430     0.250153  Biso 1.000000     H
    H   1.0     0.124850     0.539155     0.128271  Biso 1.000000     H
    H   1.0     0.624781     0.539150     0.128261  Biso 1.000000     H
    C   1.0     0.417848     0.138777     0.859023  Biso 1.000000     C
    C   1.0     0.917863     0.138764     0.859025  Biso 1.000000     C
    C   1.0     0.420722     0.074117     0.781731  Biso 1.000000     C
    C   1.0     0.920750     0.074108     0.781730  Biso 1.000000     C
    C   1.0     0.450089     0.104197     0.695271  Biso 1.000000     C
    C   1.0     0.950174     0.104195     0.695285  Biso 1.000000     C
    C   1.0     0.470719     0.198281     0.675067  Biso 1.000000     C
    C   1.0     0.970877     0.198276     0.675114  Biso 1.000000     C
    C   1.0     0.502613     0.225063     0.591957  Biso 1.000000     C
    C   1.0     0.000000     0.225069     0.592020  Biso 1.000000     C
    C   1.0     0.515775     0.158856     0.525019  Biso 1.000000     C
    C   1.0     0.000000     0.158875     0.525068  Biso 1.000000     C
    C   1.0     0.496343     0.066914     0.541954  Biso 1.000000     C
    C   1.0     0.996471     0.066934     0.541973  Biso 1.000000     C
    C   1.0     0.462536     0.036556     0.626659  Biso 1.000000     C
    C   1.0     0.962616     0.036564     0.626663  Biso 1.000000     C
    C   1.0     0.435876     0.942361     0.645997  Biso 1.000000     C
    C   1.0     0.935903     0.942374     0.645978  Biso 1.000000     C
    C   1.0     0.448606     0.866468     0.581415  Biso 1.000000     C
    C   1.0     0.948628     0.866481     0.581397  Biso 1.000000     C
    C   1.0     0.399454     0.917681     0.729340  Biso 1.000000     C
    C   1.0     0.899446     0.917688     0.729311  Biso 1.000000     C
    C   1.0     0.396360     0.982357     0.797599  Biso 1.000000     C
    C   1.0     0.896344     0.982353     0.797578  Biso 1.000000     C
    C   1.0     0.327586     0.861230     0.359049  Biso 1.000000     C
    C   1.0     0.827619     0.861217     0.359060  Biso 1.000000     C
    C   1.0     0.324728     0.925875     0.281744  Biso 1.000000     C
    C   1.0     0.824770     0.925853     0.281751  Biso 1.000000     C
    C   1.0     0.295220     0.895764     0.195358  Biso 1.000000     C
    C   1.0     0.795311     0.895724     0.195360  Biso 1.000000     C
    C   1.0     0.274594     0.801665     0.175244  Biso 1.000000     C
    C   1.0     0.774718     0.801618     0.175253  Biso 1.000000     C
    C   1.0     0.242555     0.774834     0.092220  Biso 1.000000     C
    C   1.0     0.742725     0.774770     0.092223  Biso 1.000000     C
    C   1.0     0.229236     0.841011     0.025284  Biso 1.000000     C
    C   1.0     0.729390     0.840938     0.025280  Biso 1.000000     C
    C   1.0     0.248680     0.932968     0.042125  Biso 1.000000     C
    C   1.0     0.748798     0.932901     0.042116  Biso 1.000000     C
    C   1.0     0.282676     0.963372     0.126733  Biso 1.000000     C
    C   1.0     0.782745     0.963323     0.126731  Biso 1.000000     C
    C   1.0     0.309379     0.057574     0.145981  Biso 1.000000     C
    C   1.0     0.809424     0.057532     0.145971  Biso 1.000000     C
    C   1.0     0.296656     0.133457     0.081396  Biso 1.000000     C
    C   1.0     0.796669     0.133418     0.081391  Biso 1.000000     C
    C   1.0     0.345941     0.082280     0.229243  Biso 1.000000     C
    C   1.0     0.845958     0.082254     0.229236  Biso 1.000000     C
    C   1.0     0.349121     0.017638     0.297528  Biso 1.000000     C
    C   1.0     0.849147     0.017620     0.297527  Biso 1.000000     C
    C   1.0     0.075419     0.638441     0.633566  Biso 1.000000     C
    C   1.0     0.575416     0.638407     0.633540  Biso 1.000000     C
    C   1.0     0.073281     0.573271     0.710581  Biso 1.000000     C
    C   1.0     0.573217     0.573220     0.710543  Biso 1.000000     C
    C   1.0     0.043991     0.602468     0.797164  Biso 1.000000     C
    C   1.0     0.543911     0.602417     0.797121  Biso 1.000000     C
    C   1.0     0.022011     0.695976     0.817340  Biso 1.000000     C
    C   1.0     0.521849     0.695915     0.817276  Biso 1.000000     C
    C   1.0    -0.009386     0.722033     0.900615  Biso 1.000000     C
    C   1.0     0.490431     0.721975     0.900545  Biso 1.000000     C
    C   1.0    -0.020559     0.655586     0.967754  Biso 1.000000     C
    C   1.0     0.479235     0.655528     0.967682  Biso 1.000000     C
    C   1.0     0.000061     0.564163     0.950812  Biso 1.000000     C
    C   1.0     0.499926     0.564114     0.950760  Biso 1.000000     C
    C   1.0     0.033341     0.534569     0.865915  Biso 1.000000     C
    C   1.0     0.533213     0.534518     0.865866  Biso 1.000000     C
    C   1.0     0.061155     0.441050     0.846415  Biso 1.000000     C
    C   1.0     0.561117     0.441012     0.846391  Biso 1.000000     C
    C   1.0     0.050033     0.364803     0.910995  Biso 1.000000     C
    C   1.0     0.550019     0.364772     0.910978  Biso 1.000000     C
    C   1.0     0.097105     0.417400     0.762832  Biso 1.000000     C
    C   1.0     0.597045     0.417352     0.762804  Biso 1.000000     C
    C   1.0     0.098826     0.482182     0.694567  Biso 1.000000     C
    C   1.0     0.598791     0.482135     0.694537  Biso 1.000000     C
    C   1.0     0.169756     0.361578     0.133524  Biso 1.000000     C
    C   1.0     0.669777     0.361584     0.133526  Biso 1.000000     C
    C   1.0     0.171849     0.426719     0.210553  Biso 1.000000     C
    C   1.0     0.671867     0.426740     0.210545  Biso 1.000000     C
    C   1.0     0.201154     0.397459     0.297083  Biso 1.000000     C
    C   1.0     0.701209     0.397501     0.297074  Biso 1.000000     C
    C   1.0     0.223038     0.303918     0.317170  Biso 1.000000     C
    C   1.0     0.723145     0.303971     0.317170  Biso 1.000000     C
    C   1.0     0.254495     0.277780     0.400376  Biso 1.000000     C
    C   1.0     0.754627     0.277855     0.400377  Biso 1.000000     C
    C   1.0     0.265925     0.344191     0.467505  Biso 1.000000     C
    C   1.0     0.766054     0.344281     0.467493  Biso 1.000000     C
    C   1.0     0.245380     0.435644     0.450652  Biso 1.000000     C
    C   1.0     0.745460     0.435724     0.450631  Biso 1.000000     C
    C   1.0     0.211992     0.465320     0.365839  Biso 1.000000     C
    C   1.0     0.712047     0.465375     0.365816  Biso 1.000000     C
    C   1.0     0.184186     0.558862     0.346433  Biso 1.000000     C
    C   1.0     0.684187     0.558905     0.346408  Biso 1.000000     C
    C   1.0     0.195366     0.635108     0.411001  Biso 1.000000     C
    C   1.0     0.695366     0.635150     0.410975  Biso 1.000000     C
    C   1.0     0.148142     0.582559     0.262917  Biso 1.000000     C
    C   1.0     0.648114     0.582584     0.262895  Biso 1.000000     C
    C   1.0     0.146316     0.517821     0.194622  Biso 1.000000     C
    C   1.0     0.646284     0.517833     0.194610  Biso 1.000000     C
    O   1.0     0.360910     0.211633     0.851585  Biso 1.000000     O
    O   1.0     0.860918     0.211616     0.851589  Biso 1.000000     O
    O   1.0     0.472387     0.112984     0.925978  Biso 1.000000     O
    O   1.0     0.972406     0.112973     0.925979  Biso 1.000000     O
    O   1.0     0.027700     0.866496     0.526063  Biso 1.000000     O
    O   1.0     0.527701     0.866486     0.526083  Biso 1.000000     O
    O   1.0     0.379068     0.798553     0.584595  Biso 1.000000     O
    O   1.0     0.879090     0.798565     0.584585  Biso 1.000000     O
    O   1.0     0.384542     0.788382     0.351606  Biso 1.000000     O
    O   1.0     0.884570     0.788365     0.351621  Biso 1.000000     O
    O   1.0     0.272995     0.887036     0.426025  Biso 1.000000     O
    O   1.0     0.773015     0.887027     0.426027  Biso 1.000000     O
    O   1.0     0.217612     0.133441     0.026098  Biso 1.000000     O
    O   1.0     0.717613     0.133405     0.026105  Biso 1.000000     O
    O   1.0     0.366170     0.201390     0.084561  Biso 1.000000     O
    O   1.0     0.866185     0.201351     0.084550  Biso 1.000000     O
    O   1.0     0.133862     0.711491     0.640947  Biso 1.000000     O
    O   1.0     0.633873     0.711449     0.640943  Biso 1.000000     O
    O   1.0     0.019126     0.612915     0.567135  Biso 1.000000     O
    O   1.0     0.519120     0.612911     0.567101  Biso 1.000000     O
    O   1.0     0.471929     0.363141     0.967332  Biso 1.000000     O
    O   1.0     0.971933     0.363164     0.967321  Biso 1.000000     O
    O   1.0     0.119362     0.298068     0.907145  Biso 1.000000     O
    O   1.0     0.619373     0.298056     0.907139  Biso 1.000000     O
    O   1.0     0.111345     0.288507     0.140912  Biso 1.000000     O
    O   1.0     0.611369     0.288513     0.140920  Biso 1.000000     O
    O   1.0     0.226146     0.387121     0.067093  Biso 1.000000     O
    O   1.0     0.726176     0.387115     0.067094  Biso 1.000000     O
    O   1.0     0.273460     0.636748     0.467271  Biso 1.000000     O
    O   1.0     0.773451     0.636775     0.467255  Biso 1.000000     O
    O   1.0     0.126070     0.701867     0.407180  Biso 1.000000     O
    O   1.0     0.626071     0.701910     0.407164  Biso 1.000000     O
   Cd   1.0     0.297089     0.291955     0.965976  Biso 1.000000    Cd
   Cd   1.0     0.797101     0.291936     0.965984  Biso 1.000000    Cd
   Cd   1.0     0.448264     0.708033     0.465978  Biso 1.000000    Cd
   Cd   1.0     0.948279     0.708014     0.465993  Biso 1.000000    Cd
   Cd   1.0     0.199195     0.792492     0.526989  Biso 1.000000    Cd
   Cd   1.0     0.699209     0.792491     0.527004  Biso 1.000000    Cd
   Cd   1.0     0.046113     0.207448     0.026995  Biso 1.000000    Cd
   Cd   1.0     0.546123     0.207447     0.027006  Biso 1.000000    Cd
