#======================================================================

# CRYSTAL DATA

#----------------------------------------------------------------------

data_VESTA_phase_1


_pd_phase_name                         MOF
_cell_length_a                         17.83800
_cell_length_b                         20.20700
_cell_length_c                         15.05100
_cell_angle_alpha                      90.02100
_cell_angle_beta                       89.80700
_cell_angle_gamma                      89.83500
_symmetry_space_group_name_H-M         "P 1"
_symmetry_Int_Tables_number            1

loop_
_symmetry_equiv_pos_as_xyz
   "x, y, z"

loop_
   _atom_site_label
   _atom_site_occupancy
   _atom_site_fract_x
   _atom_site_fract_y
   _atom_site_fract_z
   _atom_site_adp_type
   _atom_site_B_iso_or_equiv
   _atom_site_type_symbol
    H   1.0     0.096742     0.075038     0.176559  Biso 1.000000     H
    H   1.0     0.096747     0.575028     0.176559  Biso 1.000000     H
    H   1.0     0.596731     0.075038     0.176559  Biso 1.000000     H
    H   1.0     0.596736     0.575028     0.176559  Biso 1.000000     H
    H   1.0     0.051825     0.153510     0.186479  Biso 1.000000     H
    H   1.0     0.051830     0.653500     0.186480  Biso 1.000000     H
    H   1.0     0.551813     0.153511     0.186480  Biso 1.000000     H
    H   1.0     0.551818     0.653500     0.186480  Biso 1.000000     H
    H   1.0     0.065300     0.214170     0.313845  Biso 1.000000     H
    H   1.0     0.065306     0.714160     0.313845  Biso 1.000000     H
    H   1.0     0.565289     0.214170     0.313846  Biso 1.000000     H
    H   1.0     0.565294     0.714160     0.313846  Biso 1.000000     H
    H   1.0     0.160598     0.226803     0.334504  Biso 1.000000     H
    H   1.0     0.160603     0.726793     0.334505  Biso 1.000000     H
    H   1.0     0.660586     0.226803     0.334506  Biso 1.000000     H
    H   1.0     0.660591     0.726793     0.334506  Biso 1.000000     H
    H   1.0     0.211961     0.187834     0.205499  Biso 1.000000     H
    H   1.0     0.211966     0.687825     0.205499  Biso 1.000000     H
    H   1.0     0.711949     0.187835     0.205500  Biso 1.000000     H
    H   1.0     0.711954     0.687825     0.205500  Biso 1.000000     H
    H   1.0     0.214212     0.100828     0.187999  Biso 1.000000     H
    H   1.0     0.214217     0.600818     0.187999  Biso 1.000000     H
    H   1.0     0.714201     0.100829     0.187999  Biso 1.000000     H
    H   1.0     0.714206     0.600819     0.187999  Biso 1.000000     H
    H   1.0     0.402784     0.134745     0.321225  Biso 1.000000     H
    H   1.0     0.402789     0.634735     0.321225  Biso 1.000000     H
    H   1.0     0.902773     0.134746     0.321224  Biso 1.000000     H
    H   1.0     0.902778     0.634735     0.321224  Biso 1.000000     H
    H   1.0     0.406258     0.175893     0.676902  Biso 1.000000     H
    H   1.0     0.406263     0.675883     0.676902  Biso 1.000000     H
    H   1.0     0.906247     0.175891     0.676900  Biso 1.000000     H
    H   1.0     0.906252     0.675882     0.676901  Biso 1.000000     H
    H   1.0     0.450868     0.097246     0.686154  Biso 1.000000     H
    H   1.0     0.450873     0.597236     0.686154  Biso 1.000000     H
    H   1.0     0.950857     0.097245     0.686154  Biso 1.000000     H
    H   1.0     0.950862     0.597236     0.686154  Biso 1.000000     H
    H   1.0     0.435227     0.035224     0.812022  Biso 1.000000     H
    H   1.0     0.435231     0.535214     0.812022  Biso 1.000000     H
    H   1.0     0.935215     0.035223     0.812021  Biso 1.000000     H
    H   1.0     0.935220     0.535214     0.812021  Biso 1.000000     H
    H   1.0     0.339796     0.023802     0.833650  Biso 1.000000     H
    H   1.0     0.339800     0.523792     0.833650  Biso 1.000000     H
    H   1.0     0.839784     0.023802     0.833651  Biso 1.000000     H
    H   1.0     0.839789     0.523792     0.833651  Biso 1.000000     H
    H   1.0     0.290248     0.063137     0.704058  Biso 1.000000     H
    H   1.0     0.290252     0.563127     0.704058  Biso 1.000000     H
    H   1.0     0.790236     0.063137     0.704058  Biso 1.000000     H
    H   1.0     0.790241     0.563127     0.704058  Biso 1.000000     H
    H   1.0     0.288137     0.150294     0.687754  Biso 1.000000     H
    H   1.0     0.288142     0.650284     0.687754  Biso 1.000000     H
    H   1.0     0.788126     0.150294     0.687754  Biso 1.000000     H
    H   1.0     0.788130     0.650284     0.687754  Biso 1.000000     H
    H   1.0     0.098483     0.115037     0.821814  Biso 1.000000     H
    H   1.0     0.098488     0.615028     0.821815  Biso 1.000000     H
    H   1.0     0.598472     0.115038     0.821814  Biso 1.000000     H
    H   1.0     0.598477     0.615028     0.821815  Biso 1.000000     H
    H   1.0     0.346934     0.425216     0.324753  Biso 1.000000     H
    H   1.0     0.346938     0.925206     0.324753  Biso 1.000000     H
    H   1.0     0.846923     0.425216     0.324752  Biso 1.000000     H
    H   1.0     0.846928     0.925206     0.324752  Biso 1.000000     H
    H   1.0     0.302603     0.346702     0.314932  Biso 1.000000     H
    H   1.0     0.302608     0.846692     0.314932  Biso 1.000000     H
    H   1.0     0.802592     0.346702     0.314932  Biso 1.000000     H
    H   1.0     0.802597     0.846692     0.314932  Biso 1.000000     H
    H   1.0     0.318870     0.284442     0.189459  Biso 1.000000     H
    H   1.0     0.318875     0.784432     0.189459  Biso 1.000000     H
    H   1.0     0.818858     0.284442     0.189458  Biso 1.000000     H
    H   1.0     0.818863     0.784432     0.189459  Biso 1.000000     H
    H   1.0     0.414213     0.274178     0.165587  Biso 1.000000     H
    H   1.0     0.414218     0.774168     0.165587  Biso 1.000000     H
    H   1.0     0.914202     0.274178     0.165587  Biso 1.000000     H
    H   1.0     0.914207     0.774168     0.165587  Biso 1.000000     H
    H   1.0     0.463294     0.312847     0.296414  Biso 1.000000     H
    H   1.0     0.463299     0.812837     0.296414  Biso 1.000000     H
    H   1.0     0.963282     0.312846     0.296414  Biso 1.000000     H
    H   1.0     0.963288     0.812836     0.296414  Biso 1.000000     H
    H   1.0     0.464905     0.399980     0.312855  Biso 1.000000     H
    H   1.0     0.464910     0.899970     0.312855  Biso 1.000000     H
    H   1.0     0.964894     0.399980     0.312854  Biso 1.000000     H
    H   1.0     0.964898     0.899970     0.312855  Biso 1.000000     H
    H   1.0     0.154445     0.365066     0.179811  Biso 1.000000     H
    H   1.0     0.154450     0.865057     0.179811  Biso 1.000000     H
    H   1.0     0.654434     0.365067     0.179811  Biso 1.000000     H
    H   1.0     0.654439     0.865057     0.179812  Biso 1.000000     H
    H   1.0     0.155125     0.324644     0.825592  Biso 1.000000     H
    H   1.0     0.155130     0.824634     0.825592  Biso 1.000000     H
    H   1.0     0.655113     0.324644     0.825592  Biso 1.000000     H
    H   1.0     0.655118     0.824634     0.825592  Biso 1.000000     H
    H   1.0     0.199498     0.403160     0.816043  Biso 1.000000     H
    H   1.0     0.199503     0.903150     0.816043  Biso 1.000000     H
    H   1.0     0.699487     0.403159     0.816043  Biso 1.000000     H
    H   1.0     0.699492     0.903150     0.816043  Biso 1.000000     H
    H   1.0     0.184271     0.464949     0.689508  Biso 1.000000     H
    H   1.0     0.184276     0.964939     0.689508  Biso 1.000000     H
    H   1.0     0.684260     0.464949     0.689508  Biso 1.000000     H
    H   1.0     0.684265     0.964939     0.689508  Biso 1.000000     H
    H   1.0     0.088794     0.476478     0.668399  Biso 1.000000     H
    H   1.0     0.088798     0.976468     0.668399  Biso 1.000000     H
    H   1.0     0.588783     0.476479     0.668399  Biso 1.000000     H
    H   1.0     0.588787     0.976468     0.668399  Biso 1.000000     H
    H   1.0     0.038923     0.437393     0.798285  Biso 1.000000     H
    H   1.0     0.038928     0.937384     0.798285  Biso 1.000000     H
    H   1.0     0.538912     0.437395     0.798285  Biso 1.000000     H
    H   1.0     0.538917     0.937384     0.798285  Biso 1.000000     H
    H   1.0     0.037429     0.350302     0.815007  Biso 1.000000     H
    H   1.0     0.037433     0.850293     0.815007  Biso 1.000000     H
    H   1.0     0.537417     0.350303     0.815007  Biso 1.000000     H
    H   1.0     0.537422     0.850293     0.815007  Biso 1.000000     H
    H   1.0     0.348136     0.385041     0.681408  Biso 1.000000     H
    H   1.0     0.348141     0.885031     0.681408  Biso 1.000000     H
    H   1.0     0.848125     0.385040     0.681408  Biso 1.000000     H
    H   1.0     0.848129     0.885030     0.681408  Biso 1.000000     H
    C   1.0     0.074249     0.111160     0.224411  Biso 1.000000     C
    C   1.0     0.074254     0.611151     0.224412  Biso 1.000000     C
    C   1.0     0.574238     0.111161     0.224412  Biso 1.000000     C
    C   1.0     0.574243     0.611151     0.224412  Biso 1.000000     C
    C   1.0     0.115802     0.189664     0.339509  Biso 1.000000     C
    C   1.0     0.115807     0.689654     0.339509  Biso 1.000000     C
    C   1.0     0.615791     0.189664     0.339510  Biso 1.000000     C
    C   1.0     0.615796     0.689654     0.339510  Biso 1.000000     C
    C   1.0     0.104084     0.176294     0.438166  Biso 1.000000     C
    C   1.0     0.104089     0.676284     0.438167  Biso 1.000000     C
    C   1.0     0.604072     0.176294     0.438167  Biso 1.000000     C
    C   1.0     0.604077     0.676284     0.438167  Biso 1.000000     C
    C   1.0     0.208054     0.139523     0.239071  Biso 1.000000     C
    C   1.0     0.208059     0.639513     0.239071  Biso 1.000000     C
    C   1.0     0.708043     0.139524     0.239072  Biso 1.000000     C
    C   1.0     0.708048     0.639514     0.239072  Biso 1.000000     C
    C   1.0     0.274171     0.129301     0.302123  Biso 1.000000     C
    C   1.0     0.274176     0.629291     0.302123  Biso 1.000000     C
    C   1.0     0.774160     0.129302     0.302123  Biso 1.000000     C
    C   1.0     0.774165     0.629291     0.302123  Biso 1.000000     C
    C   1.0     0.428154     0.139413     0.724443  Biso 1.000000     C
    C   1.0     0.428158     0.639403     0.724443  Biso 1.000000     C
    C   1.0     0.928142     0.139412     0.724442  Biso 1.000000     C
    C   1.0     0.928147     0.639403     0.724442  Biso 1.000000     C
    C   1.0     0.385208     0.060357     0.838339  Biso 1.000000     C
    C   1.0     0.385212     0.560347     0.838339  Biso 1.000000     C
    C   1.0     0.885196     0.060356     0.838339  Biso 1.000000     C
    C   1.0     0.885201     0.560347     0.838339  Biso 1.000000     C
    C   1.0     0.396989     0.073250     0.936970  Biso 1.000000     C
    C   1.0     0.396993     0.573240     0.936970  Biso 1.000000     C
    C   1.0     0.896978     0.073250     0.936969  Biso 1.000000     C
    C   1.0     0.896982     0.573240     0.936970  Biso 1.000000     C
    C   1.0     0.293994     0.111221     0.738259  Biso 1.000000     C
    C   1.0     0.293999     0.611211     0.738258  Biso 1.000000     C
    C   1.0     0.793983     0.111221     0.738258  Biso 1.000000     C
    C   1.0     0.793987     0.611211     0.738258  Biso 1.000000     C
    C   1.0     0.227618     0.120944     0.801684  Biso 1.000000     C
    C   1.0     0.227622     0.620934     0.801684  Biso 1.000000     C
    C   1.0     0.727606     0.120944     0.801684  Biso 1.000000     C
    C   1.0     0.727611     0.620934     0.801684  Biso 1.000000     C
    C   1.0     0.324991     0.389027     0.276968  Biso 1.000000     C
    C   1.0     0.324996     0.889017     0.276968  Biso 1.000000     C
    C   1.0     0.824980     0.389027     0.276968  Biso 1.000000     C
    C   1.0     0.824985     0.889017     0.276968  Biso 1.000000     C
    C   1.0     0.367967     0.310243     0.162318  Biso 1.000000     C
    C   1.0     0.367972     0.810233     0.162318  Biso 1.000000     C
    C   1.0     0.867955     0.310242     0.162318  Biso 1.000000     C
    C   1.0     0.867960     0.810232     0.162318  Biso 1.000000     C
    C   1.0     0.354673     0.323624     0.064045  Biso 1.000000     C
    C   1.0     0.354678     0.823614     0.064045  Biso 1.000000     C
    C   1.0     0.854662     0.323624     0.064045  Biso 1.000000     C
    C   1.0     0.854667     0.823614     0.064045  Biso 1.000000     C
    C   1.0     0.459157     0.360935     0.262290  Biso 1.000000     C
    C   1.0     0.459161     0.860925     0.262290  Biso 1.000000     C
    C   1.0     0.959145     0.360934     0.262290  Biso 1.000000     C
    C   1.0     0.959150     0.860925     0.262290  Biso 1.000000     C
    C   1.0     0.025367     0.370731     0.198781  Biso 1.000000     C
    C   1.0     0.025372     0.870721     0.198781  Biso 1.000000     C
    C   1.0     0.525355     0.370731     0.198782  Biso 1.000000     C
    C   1.0     0.525360     0.870721     0.198782  Biso 1.000000     C
    C   1.0     0.177207     0.360948     0.777910  Biso 1.000000     C
    C   1.0     0.177211     0.860938     0.777910  Biso 1.000000     C
    C   1.0     0.677195     0.360948     0.777910  Biso 1.000000     C
    C   1.0     0.677200     0.860938     0.777910  Biso 1.000000     C
    C   1.0     0.134397     0.439857     0.663566  Biso 1.000000     C
    C   1.0     0.134402     0.939847     0.663566  Biso 1.000000     C
    C   1.0     0.634386     0.439857     0.663566  Biso 1.000000     C
    C   1.0     0.634391     0.939847     0.663566  Biso 1.000000     C
    C   1.0     0.146297     0.426691     0.564847  Biso 1.000000     C
    C   1.0     0.146302     0.926681     0.564846  Biso 1.000000     C
    C   1.0     0.646285     0.426691     0.564847  Biso 1.000000     C
    C   1.0     0.646290     0.926681     0.564847  Biso 1.000000     C
    C   1.0     0.043112     0.389235     0.764268  Biso 1.000000     C
    C   1.0     0.043117     0.889226     0.764268  Biso 1.000000     C
    C   1.0     0.543100     0.389236     0.764268  Biso 1.000000     C
    C   1.0     0.543105     0.889226     0.764268  Biso 1.000000     C
    C   1.0     0.476939     0.379168     0.701333  Biso 1.000000     C
    C   1.0     0.476944     0.879158     0.701333  Biso 1.000000     C
    C   1.0     0.976928     0.379167     0.701333  Biso 1.000000     C
    C   1.0     0.976932     0.879157     0.701333  Biso 1.000000     C
    N   1.0     0.135520     0.130382     0.285573  Biso 1.000000     N
    N   1.0     0.135525     0.630372     0.285574  Biso 1.000000     N
    N   1.0     0.635509     0.130382     0.285574  Biso 1.000000     N
    N   1.0     0.635514     0.630372     0.285574  Biso 1.000000     N
    N   1.0     0.366222     0.119973     0.784997  Biso 1.000000     N
    N   1.0     0.366227     0.619963     0.784997  Biso 1.000000     N
    N   1.0     0.866211     0.119972     0.784996  Biso 1.000000     N
    N   1.0     0.866216     0.619963     0.784997  Biso 1.000000     N
    N   1.0     0.386763     0.369748     0.215891  Biso 1.000000     N
    N   1.0     0.386768     0.869738     0.215891  Biso 1.000000     N
    N   1.0     0.886752     0.369748     0.215891  Biso 1.000000     N
    N   1.0     0.886757     0.869738     0.215891  Biso 1.000000     N
    N   1.0     0.115528     0.380361     0.717280  Biso 1.000000     N
    N   1.0     0.115533     0.880352     0.717280  Biso 1.000000     N
    N   1.0     0.615517     0.380362     0.717280  Biso 1.000000     N
    N   1.0     0.615522     0.880352     0.717280  Biso 1.000000     N
    O   1.0     0.118600     0.120073     0.470265  Biso 1.000000     O
    O   1.0     0.118604     0.620063     0.470265  Biso 1.000000     O
    O   1.0     0.618588     0.120073     0.470265  Biso 1.000000     O
    O   1.0     0.618593     0.620063     0.470265  Biso 1.000000     O
    O   1.0     0.081568     0.225589     0.484331  Biso 1.000000     O
    O   1.0     0.081573     0.725579     0.484332  Biso 1.000000     O
    O   1.0     0.581556     0.225589     0.484332  Biso 1.000000     O
    O   1.0     0.581561     0.725579     0.484332  Biso 1.000000     O
    O   1.0     0.334032     0.159524     0.284518  Biso 1.000000     O
    O   1.0     0.334037     0.659515     0.284518  Biso 1.000000     O
    O   1.0     0.834020     0.159526     0.284518  Biso 1.000000     O
    O   1.0     0.834026     0.659515     0.284518  Biso 1.000000     O
    O   1.0     0.264468     0.088715     0.366613  Biso 1.000000     O
    O   1.0     0.264473     0.588705     0.366613  Biso 1.000000     O
    O   1.0     0.764457     0.088716     0.366613  Biso 1.000000     O
    O   1.0     0.764462     0.588706     0.366613  Biso 1.000000     O
    O   1.0     0.456692     0.119028     0.343372  Biso 1.000000     O
    O   1.0     0.456697     0.619018     0.343372  Biso 1.000000     O
    O   1.0     0.956680     0.119029     0.343371  Biso 1.000000     O
    O   1.0     0.956685     0.619018     0.343372  Biso 1.000000     O
    O   1.0     0.449077     0.035709     0.215574  Biso 1.000000     O
    O   1.0     0.449082     0.535699     0.215574  Biso 1.000000     O
    O   1.0     0.949065     0.035709     0.215574  Biso 1.000000     O
    O   1.0     0.949071     0.535699     0.215573  Biso 1.000000     O
    O   1.0     0.042248     0.018819     0.344752  Biso 1.000000     O
    O   1.0     0.042254     0.518809     0.344752  Biso 1.000000     O
    O   1.0     0.542238     0.018819     0.344752  Biso 1.000000     O
    O   1.0     0.542243     0.518809     0.344752  Biso 1.000000     O
    O   1.0     0.381978     0.129157     0.969936  Biso 1.000000     O
    O   1.0     0.381982     0.629148     0.969936  Biso 1.000000     O
    O   1.0     0.881968     0.129158     0.969936  Biso 1.000000     O
    O   1.0     0.881972     0.629148     0.969936  Biso 1.000000     O
    O   1.0     0.419819     0.023721     0.982219  Biso 1.000000     O
    O   1.0     0.419823     0.523711     0.982219  Biso 1.000000     O
    O   1.0     0.919808     0.023721     0.982219  Biso 1.000000     O
    O   1.0     0.919812     0.523711     0.982219  Biso 1.000000     O
    O   1.0     0.167859     0.090738     0.784188  Biso 1.000000     O
    O   1.0     0.167863     0.590728     0.784188  Biso 1.000000     O
    O   1.0     0.667847     0.090738     0.784188  Biso 1.000000     O
    O   1.0     0.667852     0.590728     0.784188  Biso 1.000000     O
    O   1.0     0.237206     0.161133     0.866645  Biso 1.000000     O
    O   1.0     0.237211     0.661123     0.866645  Biso 1.000000     O
    O   1.0     0.737195     0.161133     0.866645  Biso 1.000000     O
    O   1.0     0.737200     0.661123     0.866645  Biso 1.000000     O
    O   1.0     0.044447     0.130371     0.844072  Biso 1.000000     O
    O   1.0     0.044452     0.630361     0.844072  Biso 1.000000     O
    O   1.0     0.544436     0.130371     0.844073  Biso 1.000000     O
    O   1.0     0.544440     0.630361     0.844073  Biso 1.000000     O
    O   1.0     0.053992     0.214443     0.717678  Biso 1.000000     O
    O   1.0     0.053996     0.714434     0.717679  Biso 1.000000     O
    O   1.0     0.553980     0.214444     0.717680  Biso 1.000000     O
    O   1.0     0.553985     0.714434     0.717680  Biso 1.000000     O
    O   1.0     0.459369     0.230958     0.846114  Biso 1.000000     O
    O   1.0     0.459373     0.730948     0.846114  Biso 1.000000     O
    O   1.0     0.959357     0.230958     0.846111  Biso 1.000000     O
    O   1.0     0.959362     0.730948     0.846113  Biso 1.000000     O
    O   1.0     0.369080     0.379678     0.031477  Biso 1.000000     O
    O   1.0     0.369085     0.879668     0.031477  Biso 1.000000     O
    O   1.0     0.869069     0.379678     0.031476  Biso 1.000000     O
    O   1.0     0.869074     0.879668     0.031477  Biso 1.000000     O
    O   1.0     0.331403     0.274447     0.018591  Biso 1.000000     O
    O   1.0     0.331408     0.774438     0.018591  Biso 1.000000     O
    O   1.0     0.831392     0.274447     0.018591  Biso 1.000000     O
    O   1.0     0.831397     0.774437     0.018591  Biso 1.000000     O
    O   1.0     0.085320     0.340562     0.216453  Biso 1.000000     O
    O   1.0     0.085325     0.840553     0.216454  Biso 1.000000     O
    O   1.0     0.585309     0.340563     0.216454  Biso 1.000000     O
    O   1.0     0.585314     0.840553     0.216455  Biso 1.000000     O
    O   1.0     0.015530     0.410896     0.133830  Biso 1.000000     O
    O   1.0     0.015534     0.910886     0.133830  Biso 1.000000     O
    O   1.0     0.515518     0.410896     0.133830  Biso 1.000000     O
    O   1.0     0.515523     0.910886     0.133830  Biso 1.000000     O
    O   1.0     0.208530     0.380511     0.158097  Biso 1.000000     O
    O   1.0     0.208535     0.880501     0.158097  Biso 1.000000     O
    O   1.0     0.708519     0.380511     0.158097  Biso 1.000000     O
    O   1.0     0.708524     0.880501     0.158097  Biso 1.000000     O
    O   1.0     0.198966     0.464234     0.285194  Biso 1.000000     O
    O   1.0     0.198971     0.964224     0.285194  Biso 1.000000     O
    O   1.0     0.698955     0.464234     0.285194  Biso 1.000000     O
    O   1.0     0.698960     0.964224     0.285194  Biso 1.000000     O
    O   1.0     0.292929     0.481112     0.156222  Biso 1.000000     O
    O   1.0     0.292934     0.981102     0.156222  Biso 1.000000     O
    O   1.0     0.792918     0.481112     0.156222  Biso 1.000000     O
    O   1.0     0.792923     0.981102     0.156222  Biso 1.000000     O
    O   1.0     0.131869     0.370564     0.532554  Biso 1.000000     O
    O   1.0     0.131874     0.870554     0.532554  Biso 1.000000     O
    O   1.0     0.631857     0.370564     0.532554  Biso 1.000000     O
    O   1.0     0.631862     0.870554     0.532554  Biso 1.000000     O
    O   1.0     0.168706     0.475969     0.518869  Biso 1.000000     O
    O   1.0     0.168711     0.975959     0.518869  Biso 1.000000     O
    O   1.0     0.668695     0.475969     0.518869  Biso 1.000000     O
    O   1.0     0.668700     0.975959     0.518869  Biso 1.000000     O
    O   1.0     0.416886     0.409345     0.719001  Biso 1.000000     O
    O   1.0     0.416891     0.909334     0.719001  Biso 1.000000     O
    O   1.0     0.916875     0.409343     0.719002  Biso 1.000000     O
    O   1.0     0.916880     0.909334     0.719002  Biso 1.000000     O
    O   1.0     0.486984     0.338736     0.636630  Biso 1.000000     O
    O   1.0     0.486989     0.838726     0.636629  Biso 1.000000     O
    O   1.0     0.986973     0.338735     0.636629  Biso 1.000000     O
    O   1.0     0.986978     0.838726     0.636629  Biso 1.000000     O
    O   1.0     0.294346     0.369716     0.658925  Biso 1.000000     O
    O   1.0     0.294351     0.869706     0.658925  Biso 1.000000     O
    O   1.0     0.794335     0.369715     0.658925  Biso 1.000000     O
    O   1.0     0.794340     0.869706     0.658925  Biso 1.000000     O
    O   1.0     0.303166     0.285582     0.785300  Biso 1.000000     O
    O   1.0     0.303171     0.785572     0.785300  Biso 1.000000     O
    O   1.0     0.803154     0.285582     0.785300  Biso 1.000000     O
    O   1.0     0.803159     0.785572     0.785300  Biso 1.000000     O
    O   1.0     0.209736     0.269292     0.656272  Biso 1.000000     O
    O   1.0     0.209740     0.769282     0.656272  Biso 1.000000     O
    O   1.0     0.709724     0.269292     0.656272  Biso 1.000000     O
    O   1.0     0.709729     0.769282     0.656272  Biso 1.000000     O
    P   1.0    -0.000069     0.067590     0.284791  Biso 1.000000     P
    P   1.0    -0.000064     0.567580     0.284792  Biso 1.000000     P
    P   1.0     0.499920     0.067590     0.284792  Biso 1.000000     P
    P   1.0     0.499925     0.567580     0.284792  Biso 1.000000     P
    P   1.0     0.502029     0.182370     0.785889  Biso 1.000000     P
    P   1.0     0.502034     0.682360     0.785889  Biso 1.000000     P
    P   1.0     0.000000     0.182369     0.785887  Biso 1.000000     P
    P   1.0     0.000000     0.682360     0.785888  Biso 1.000000     P
    P   1.0     0.250742     0.432355     0.216339  Biso 1.000000     P
    P   1.0     0.250747     0.932345     0.216339  Biso 1.000000     P
    P   1.0     0.750731     0.432355     0.216338  Biso 1.000000     P
    P   1.0     0.750735     0.932345     0.216339  Biso 1.000000     P
    P   1.0     0.251691     0.317740     0.716805  Biso 1.000000     P
    P   1.0     0.251696     0.817730     0.716805  Biso 1.000000     P
    P   1.0     0.751679     0.317740     0.716805  Biso 1.000000     P
    P   1.0     0.751684     0.817730     0.716805  Biso 1.000000     P
    Y   1.0     0.158852     0.029743     0.391262  Biso 1.000000     Y
    Y   1.0     0.158857     0.529733     0.391262  Biso 1.000000     Y
    Y   1.0     0.658841     0.029743     0.391262  Biso 1.000000     Y
    Y   1.0     0.658846     0.529733     0.391262  Biso 1.000000     Y
    Y   1.0     0.342286     0.220051     0.891612  Biso 1.000000     Y
    Y   1.0     0.342290     0.720041     0.891612  Biso 1.000000     Y
    Y   1.0     0.842275     0.220051     0.891611  Biso 1.000000     Y
    Y   1.0     0.842279     0.720041     0.891612  Biso 1.000000     Y
    Y   1.0     0.409773     0.470008     0.109713  Biso 1.000000     Y
    Y   1.0     0.409778     0.969998     0.109713  Biso 1.000000     Y
    Y   1.0     0.909762     0.470008     0.109712  Biso 1.000000     Y
    Y   1.0     0.909767     0.969998     0.109712  Biso 1.000000     Y
    Y   1.0     0.092697     0.279986     0.611179  Biso 1.000000     Y
    Y   1.0     0.092701     0.779976     0.611179  Biso 1.000000     Y
    Y   1.0     0.592684     0.279986     0.611179  Biso 1.000000     Y
    Y   1.0     0.592689     0.779976     0.611179  Biso 1.000000     Y
