#======================================================================

# CRYSTAL DATA

#----------------------------------------------------------------------

data_VESTA_phase_1


_pd_phase_name                         MOF
_cell_length_a                         13.40000
_cell_length_b                         20.69000
_cell_length_c                         21.84200
_cell_angle_alpha                      117.46600
_cell_angle_beta                       104.23300
_cell_angle_gamma                      90.60900
_symmetry_space_group_name_H-M         "P 1"
_symmetry_Int_Tables_number            1

loop_
_symmetry_equiv_pos_as_xyz
   "x, y, z"

loop_
   _atom_site_label
   _atom_site_occupancy
   _atom_site_fract_x
   _atom_site_fract_y
   _atom_site_fract_z
   _atom_site_adp_type
   _atom_site_B_iso_or_equiv
   _atom_site_type_symbol
    H   1.0     0.033408     0.378803     0.390446  Biso 1.000000     H
    H   1.0    -0.047134     0.259569     0.833899  Biso 1.000000     H
    H   1.0     0.045748     0.000000     0.390444  Biso 1.000000     H
    H   1.0    -0.034794     0.932338     0.833895  Biso 1.000000     H
    H   1.0     0.538486     0.378803     0.390447  Biso 1.000000     H
    H   1.0     0.457944     0.259569     0.833898  Biso 1.000000     H
    H   1.0     0.550827     0.000000     0.390446  Biso 1.000000     H
    H   1.0     0.470283     0.932337     0.833896  Biso 1.000000     H
    H   1.0     0.281942     0.268447     0.247585  Biso 1.000000     H
    H   1.0     0.201398     0.149214     0.691036  Biso 1.000000     H
    H   1.0     0.294282     0.941218     0.247582  Biso 1.000000     H
    H   1.0     0.213738     0.821985     0.691032  Biso 1.000000     H
    H   1.0     0.787019     0.268447     0.247585  Biso 1.000000     H
    H   1.0     0.706476     0.149215     0.691035  Biso 1.000000     H
    H   1.0     0.799359     0.941218     0.247582  Biso 1.000000     H
    H   1.0     0.718817     0.821984     0.691033  Biso 1.000000     H
    H   1.0    -0.013506     0.250701     0.286453  Biso 1.000000     H
    H   1.0    -0.094047     0.131468     0.729905  Biso 1.000000     H
    H   1.0    -0.001165     0.923471     0.286449  Biso 1.000000     H
    H   1.0    -0.081708     0.804237     0.729901  Biso 1.000000     H
    H   1.0     0.491572     0.250702     0.286453  Biso 1.000000     H
    H   1.0     0.411030     0.131468     0.729904  Biso 1.000000     H
    H   1.0     0.503913     0.923470     0.286451  Biso 1.000000     H
    H   1.0     0.423370     0.804237     0.729901  Biso 1.000000     H
    H   1.0     0.328812     0.396847     0.351347  Biso 1.000000     H
    H   1.0     0.248269     0.277615     0.794797  Biso 1.000000     H
    H   1.0     0.341152     0.000000     0.351344  Biso 1.000000     H
    H   1.0     0.260609     0.950385     0.794795  Biso 1.000000     H
    H   1.0     0.833890     0.396848     0.351347  Biso 1.000000     H
    H   1.0     0.753347     0.277615     0.794797  Biso 1.000000     H
    H   1.0     0.846230     0.000000     0.351345  Biso 1.000000     H
    H   1.0     0.765687     0.950384     0.794796  Biso 1.000000     H
    H   1.0     0.064977     0.624071     0.057454  Biso 1.000000     H
    H   1.0    -0.015567     0.504838     0.500904  Biso 1.000000     H
    H   1.0     0.077318     0.000000     0.057457  Biso 1.000000     H
    H   1.0    -0.003225     0.000000     0.500907  Biso 1.000000     H
    H   1.0     0.570055     0.624071     0.057454  Biso 1.000000     H
    H   1.0     0.489512     0.504838     0.500905  Biso 1.000000     H
    H   1.0     0.582397     0.000000     0.057457  Biso 1.000000     H
    H   1.0     0.501854     0.000000     0.500907  Biso 1.000000     H
    H   1.0     0.278900     0.005177     0.390299  Biso 1.000000     H
    H   1.0     0.198358    -0.114052     0.833752  Biso 1.000000     H
    H   1.0     0.291248     0.677957     0.390305  Biso 1.000000     H
    H   1.0     0.210706     0.558729     0.833758  Biso 1.000000     H
    H   1.0     0.783978     0.005177     0.390300  Biso 1.000000     H
    H   1.0     0.703436    -0.114053     0.833751  Biso 1.000000     H
    H   1.0     0.796326     0.677957     0.390305  Biso 1.000000     H
    H   1.0     0.715783     0.558726     0.833756  Biso 1.000000     H
    H   1.0     0.036576     0.648199     0.247771  Biso 1.000000     H
    H   1.0    -0.043966     0.528968     0.691223  Biso 1.000000     H
    H   1.0     0.048914     0.000000     0.247767  Biso 1.000000     H
    H   1.0    -0.031629     0.000000     0.691218  Biso 1.000000     H
    H   1.0     0.541654     0.648197     0.247771  Biso 1.000000     H
    H   1.0     0.461112     0.528968     0.691223  Biso 1.000000     H
    H   1.0     0.553991     0.000000     0.247766  Biso 1.000000     H
    H   1.0     0.473449     0.000000     0.691218  Biso 1.000000     H
    H   1.0     0.235101     0.031654     0.286445  Biso 1.000000     H
    H   1.0     0.154559    -0.087575     0.729897  Biso 1.000000     H
    H   1.0     0.247449     0.704435     0.286451  Biso 1.000000     H
    H   1.0     0.166907     0.585207     0.729904  Biso 1.000000     H
    H   1.0     0.740179     0.031655     0.286445  Biso 1.000000     H
    H   1.0     0.659637    -0.087575     0.729897  Biso 1.000000     H
    H   1.0     0.752527     0.704436     0.286451  Biso 1.000000     H
    H   1.0     0.671984     0.585205     0.729903  Biso 1.000000     H
    H   1.0     0.067968    -0.051596     0.351376  Biso 1.000000     H
    H   1.0    -0.012575    -0.170828     0.794827  Biso 1.000000     H
    H   1.0     0.080314     0.621181     0.351380  Biso 1.000000     H
    H   1.0    -0.000228     0.501951     0.794831  Biso 1.000000     H
    H   1.0     0.573046    -0.051597     0.351375  Biso 1.000000     H
    H   1.0     0.492503    -0.170827     0.794827  Biso 1.000000     H
    H   1.0     0.585392     0.621180     0.351379  Biso 1.000000     H
    H   1.0     0.504850     0.501951     0.794831  Biso 1.000000     H
    H   1.0     0.307589     0.106071     0.057073  Biso 1.000000     H
    H   1.0     0.227046    -0.013161     0.500523  Biso 1.000000     H
    H   1.0     0.319931     0.778838     0.057070  Biso 1.000000     H
    H   1.0     0.239387     0.659604     0.500519  Biso 1.000000     H
    H   1.0     0.812667     0.106071     0.057073  Biso 1.000000     H
    H   1.0     0.732124    -0.013162     0.500523  Biso 1.000000     H
    H   1.0     0.825009     0.778839     0.057071  Biso 1.000000     H
    H   1.0     0.744466     0.659606     0.500520  Biso 1.000000     H
    C   1.0     0.293248     0.591094    -0.003976  Biso 1.000000     C
    C   1.0     0.212705     0.471862     0.439474  Biso 1.000000     C
    C   1.0     0.305589     0.000000    -0.003977  Biso 1.000000     C
    C   1.0     0.225046     0.000000     0.439473  Biso 1.000000     C
    C   1.0     0.798326     0.591095    -0.003976  Biso 1.000000     C
    C   1.0     0.717782     0.471862     0.439474  Biso 1.000000     C
    C   1.0     0.810667     0.000000    -0.003976  Biso 1.000000     C
    C   1.0     0.730123     0.000000     0.439474  Biso 1.000000     C
    C   1.0     0.184162     0.395386     0.377378  Biso 1.000000     C
    C   1.0     0.103619     0.276153     0.820829  Biso 1.000000     C
    C   1.0     0.196502     0.000000     0.377376  Biso 1.000000     C
    C   1.0     0.115959     0.948922     0.820827  Biso 1.000000     C
    C   1.0     0.689240     0.395386     0.377378  Biso 1.000000     C
    C   1.0     0.608697     0.276153     0.820829  Biso 1.000000     C
    C   1.0     0.701580     0.000000     0.377377  Biso 1.000000     C
    C   1.0     0.621037     0.948922     0.820827  Biso 1.000000     C
    C   1.0     0.254340     0.364309     0.337056  Biso 1.000000     C
    C   1.0     0.173797     0.245076     0.780507  Biso 1.000000     C
    C   1.0     0.266680     0.000000     0.337053  Biso 1.000000     C
    C   1.0     0.186137     0.917846     0.780504  Biso 1.000000     C
    C   1.0     0.759418     0.364309     0.337056  Biso 1.000000     C
    C   1.0     0.678875     0.245077     0.780506  Biso 1.000000     C
    C   1.0     0.771758     0.000000     0.337054  Biso 1.000000     C
    C   1.0     0.691215     0.917846     0.780505  Biso 1.000000     C
    C   1.0     0.087373     0.354323     0.358913  Biso 1.000000     C
    C   1.0     0.006831     0.235089     0.802364  Biso 1.000000     C
    C   1.0     0.099713     0.000000     0.358910  Biso 1.000000     C
    C   1.0     0.019171     0.907858     0.802361  Biso 1.000000     C
    C   1.0     0.592451     0.354323     0.358913  Biso 1.000000     C
    C   1.0     0.511909     0.235090     0.802364  Biso 1.000000     C
    C   1.0     0.604792     0.000000     0.358912  Biso 1.000000     C
    C   1.0     0.524249     0.907858     0.802362  Biso 1.000000     C
    C   1.0     0.228384     0.293275     0.279416  Biso 1.000000     C
    C   1.0     0.147841     0.174042     0.722867  Biso 1.000000     C
    C   1.0     0.240724     0.966046     0.279413  Biso 1.000000     C
    C   1.0     0.160181     0.846813     0.722863  Biso 1.000000     C
    C   1.0     0.733462     0.293276     0.279416  Biso 1.000000     C
    C   1.0     0.652919     0.174043     0.722866  Biso 1.000000     C
    C   1.0     0.745802     0.966046     0.279413  Biso 1.000000     C
    C   1.0     0.665259     0.846812     0.722864  Biso 1.000000     C
    C   1.0     0.061219     0.283243     0.301267  Biso 1.000000     C
    C   1.0    -0.019323     0.164009     0.744719  Biso 1.000000     C
    C   1.0     0.073559     0.956013     0.301264  Biso 1.000000     C
    C   1.0    -0.006983     0.836779     0.744715  Biso 1.000000     C
    C   1.0     0.566297     0.283243     0.301267  Biso 1.000000     C
    C   1.0     0.485754     0.164010     0.744718  Biso 1.000000     C
    C   1.0     0.578637     0.956012     0.301265  Biso 1.000000     C
    C   1.0     0.498094     0.836779     0.744716  Biso 1.000000     C
    C   1.0     0.131678     0.252295     0.261229  Biso 1.000000     C
    C   1.0     0.051135     0.133061     0.704680  Biso 1.000000     C
    C   1.0     0.144018     0.925065     0.261226  Biso 1.000000     C
    C   1.0     0.063475     0.805831     0.704677  Biso 1.000000     C
    C   1.0     0.636755     0.252295     0.261229  Biso 1.000000     C
    C   1.0     0.556213     0.133062     0.704680  Biso 1.000000     C
    C   1.0     0.649096     0.925064     0.261227  Biso 1.000000     C
    C   1.0     0.568553     0.805831     0.704677  Biso 1.000000     C
    C   1.0     0.104289     0.175825     0.199335  Biso 1.000000     C
    C   1.0     0.023746     0.056592     0.642785  Biso 1.000000     C
    C   1.0     0.116631     0.848594     0.199333  Biso 1.000000     C
    C   1.0     0.036087     0.729361     0.642783  Biso 1.000000     C
    C   1.0     0.609367     0.175825     0.199335  Biso 1.000000     C
    C   1.0     0.528824     0.056592     0.642785  Biso 1.000000     C
    C   1.0     0.621708     0.848594     0.199333  Biso 1.000000     C
    C   1.0     0.541165     0.729361     0.642783  Biso 1.000000     C
    C   1.0     0.031079     0.079044    -0.004100  Biso 1.000000     C
    C   1.0    -0.049465    -0.040189     0.439350  Biso 1.000000     C
    C   1.0     0.043423     0.751817    -0.004099  Biso 1.000000     C
    C   1.0    -0.037121     0.632583     0.439351  Biso 1.000000     C
    C   1.0     0.536158     0.079045    -0.004099  Biso 1.000000     C
    C   1.0     0.455614    -0.040189     0.439350  Biso 1.000000     C
    C   1.0     0.548501     0.751817    -0.004098  Biso 1.000000     C
    C   1.0     0.467957     0.632583     0.439351  Biso 1.000000     C
    C   1.0     0.428843    -0.024446     0.377308  Biso 1.000000     C
    C   1.0     0.348301    -0.143676     0.820759  Biso 1.000000     C
    C   1.0     0.441190     0.648331     0.377311  Biso 1.000000     C
    C   1.0     0.360647     0.529102     0.820763  Biso 1.000000     C
    C   1.0     0.933922    -0.024445     0.377308  Biso 1.000000     C
    C   1.0     0.853379    -0.143677     0.820759  Biso 1.000000     C
    C   1.0     0.946268     0.648332     0.377312  Biso 1.000000     C
    C   1.0     0.865725     0.529101     0.820763  Biso 1.000000     C
    C   1.0    -0.005528    -0.032906     0.337081  Biso 1.000000     C
    C   1.0    -0.086071    -0.152138     0.780532  Biso 1.000000     C
    C   1.0     0.006818     0.639871     0.337085  Biso 1.000000     C
    C   1.0    -0.073724     0.520641     0.780537  Biso 1.000000     C
    C   1.0     0.499549    -0.032908     0.337081  Biso 1.000000     C
    C   1.0     0.419007    -0.152138     0.780532  Biso 1.000000     C
    C   1.0     0.511896     0.639871     0.337085  Biso 1.000000     C
    C   1.0     0.431354     0.520641     0.780537  Biso 1.000000     C
    C   1.0     0.333282    -0.001275     0.358837  Biso 1.000000     C
    C   1.0     0.252740    -0.120504     0.802289  Biso 1.000000     C
    C   1.0     0.345629     0.671505     0.358842  Biso 1.000000     C
    C   1.0     0.265087     0.552276     0.802295  Biso 1.000000     C
    C   1.0     0.838360    -0.001274     0.358837  Biso 1.000000     C
    C   1.0     0.757818    -0.120505     0.802289  Biso 1.000000     C
    C   1.0     0.850707     0.671505     0.358843  Biso 1.000000     C
    C   1.0     0.770165     0.552274     0.802294  Biso 1.000000     C
    C   1.0    -0.029755    -0.018195     0.279523  Biso 1.000000     C
    C   1.0    -0.110298    -0.137426     0.722974  Biso 1.000000     C
    C   1.0    -0.017408     0.654584     0.279527  Biso 1.000000     C
    C   1.0    -0.097951     0.535353     0.722979  Biso 1.000000     C
    C   1.0     0.475323    -0.018197     0.279522  Biso 1.000000     C
    C   1.0     0.394781    -0.137426     0.722974  Biso 1.000000     C
    C   1.0     0.487670     0.654583     0.279527  Biso 1.000000     C
    C   1.0     0.407127     0.535354     0.722979  Biso 1.000000     C
    C   1.0     0.308858     0.013477     0.301271  Biso 1.000000     C
    C   1.0     0.228316    -0.105752     0.744723  Biso 1.000000     C
    C   1.0     0.321206     0.686258     0.301277  Biso 1.000000     C
    C   1.0     0.240664     0.567029     0.744730  Biso 1.000000     C
    C   1.0     0.813936     0.013478     0.301272  Biso 1.000000     C
    C   1.0     0.733394    -0.105752     0.744723  Biso 1.000000     C
    C   1.0     0.826284     0.686258     0.301278  Biso 1.000000     C
    C   1.0     0.745742     0.567027     0.744729  Biso 1.000000     C
    C   1.0     0.379845     0.005164     0.261331  Biso 1.000000     C
    C   1.0     0.299303    -0.114066     0.704782  Biso 1.000000     C
    C   1.0     0.392192     0.677943     0.261336  Biso 1.000000     C
    C   1.0     0.311650     0.558714     0.704788  Biso 1.000000     C
    C   1.0     0.884923     0.005165     0.261331  Biso 1.000000     C
    C   1.0     0.804381    -0.114066     0.704782  Biso 1.000000     C
    C   1.0     0.897270     0.677944     0.261336  Biso 1.000000     C
    C   1.0     0.816728     0.558713     0.704787  Biso 1.000000     C
    C   1.0     0.354230     0.021099     0.199489  Biso 1.000000     C
    C   1.0     0.273687    -0.098132     0.642940  Biso 1.000000     C
    C   1.0     0.366574     0.693874     0.199491  Biso 1.000000     C
    C   1.0     0.286031     0.574643     0.642942  Biso 1.000000     C
    C   1.0     0.859308     0.021100     0.199489  Biso 1.000000     C
    C   1.0     0.778765    -0.098132     0.642940  Biso 1.000000     C
    C   1.0     0.871652     0.693874     0.199492  Biso 1.000000     C
    C   1.0     0.791109     0.574642     0.642942  Biso 1.000000     C
    O   1.0     0.224909     0.617600     0.028977  Biso 1.000000     O
    O   1.0     0.144365     0.498368     0.472427  Biso 1.000000     O
    O   1.0     0.237250     0.000000     0.028976  Biso 1.000000     O
    O   1.0     0.156706     0.000000     0.472426  Biso 1.000000     O
    O   1.0     0.729987     0.617601     0.028977  Biso 1.000000     O
    O   1.0     0.649443     0.498368     0.472427  Biso 1.000000     O
    O   1.0     0.742328     0.000000     0.028977  Biso 1.000000     O
    O   1.0     0.661784     0.000000     0.472427  Biso 1.000000     O
    O   1.0     0.384535     0.623516     0.011012  Biso 1.000000     O
    O   1.0     0.303992     0.504283     0.454462  Biso 1.000000     O
    O   1.0     0.396877     0.000000     0.011012  Biso 1.000000     O
    O   1.0     0.316333     0.000000     0.454462  Biso 1.000000     O
    O   1.0     0.889614     0.623516     0.011012  Biso 1.000000     O
    O   1.0     0.809070     0.504283     0.454462  Biso 1.000000     O
    O   1.0     0.901955     0.000000     0.011012  Biso 1.000000     O
    O   1.0     0.821411     0.000000     0.454462  Biso 1.000000     O
    O   1.0     0.171033     0.152246     0.164346  Biso 1.000000     O
    O   1.0     0.090489     0.033013     0.607796  Biso 1.000000     O
    O   1.0     0.183374     0.825016     0.164344  Biso 1.000000     O
    O   1.0     0.102830     0.705783     0.607794  Biso 1.000000     O
    O   1.0     0.676110     0.152246     0.164346  Biso 1.000000     O
    O   1.0     0.595567     0.033014     0.607796  Biso 1.000000     O
    O   1.0     0.688452     0.825016     0.164344  Biso 1.000000     O
    O   1.0     0.607908     0.705783     0.607794  Biso 1.000000     O
    O   1.0     0.016288     0.140741     0.186445  Biso 1.000000     O
    O   1.0    -0.064255     0.021509     0.629895  Biso 1.000000     O
    O   1.0     0.028631     0.813511     0.186444  Biso 1.000000     O
    O   1.0    -0.051913     0.694277     0.629894  Biso 1.000000     O
    O   1.0     0.521366     0.140741     0.186445  Biso 1.000000     O
    O   1.0     0.440823     0.021509     0.629895  Biso 1.000000     O
    O   1.0     0.533708     0.813510     0.186444  Biso 1.000000     O
    O   1.0     0.453165     0.694277     0.629894  Biso 1.000000     O
    O   1.0     0.079547     0.674477     0.096734  Biso 1.000000     O
    O   1.0    -0.000996     0.555245     0.540184  Biso 1.000000     O
    O   1.0     0.091888     0.000000     0.096736  Biso 1.000000     O
    O   1.0     0.011345     0.000000     0.540185  Biso 1.000000     O
    O   1.0     0.584625     0.674477     0.096734  Biso 1.000000     O
    O   1.0     0.504082     0.555245     0.540185  Biso 1.000000     O
    O   1.0     0.596967     0.000000     0.096736  Biso 1.000000     O
    O   1.0     0.516423     0.000000     0.540186  Biso 1.000000     O
    O   1.0     0.467385     0.084756     0.028765  Biso 1.000000     O
    O   1.0     0.386841    -0.034477     0.472214  Biso 1.000000     O
    O   1.0     0.479727     0.757526     0.028764  Biso 1.000000     O
    O   1.0     0.399183     0.638292     0.472213  Biso 1.000000     O
    O   1.0     0.972463     0.084755     0.028764  Biso 1.000000     O
    O   1.0     0.891919    -0.034477     0.472214  Biso 1.000000     O
    O   1.0     0.984805     0.757526     0.028764  Biso 1.000000     O
    O   1.0     0.904262     0.638292     0.472214  Biso 1.000000     O
    O   1.0     0.121500     0.061267     0.010934  Biso 1.000000     O
    O   1.0     0.040956    -0.057965     0.454383  Biso 1.000000     O
    O   1.0     0.133842     0.734037     0.010933  Biso 1.000000     O
    O   1.0     0.053298     0.614804     0.454382  Biso 1.000000     O
    O   1.0     0.626578     0.061267     0.010934  Biso 1.000000     O
    O   1.0     0.546034    -0.057966     0.454383  Biso 1.000000     O
    O   1.0     0.638920     0.734038     0.010933  Biso 1.000000     O
    O   1.0     0.558377     0.614804     0.454382  Biso 1.000000     O
    O   1.0     0.433604     0.683197     0.164568  Biso 1.000000     O
    O   1.0     0.353060     0.563965     0.608019  Biso 1.000000     O
    O   1.0     0.445945     0.000000     0.164567  Biso 1.000000     O
    O   1.0     0.365402     0.000000     0.608018  Biso 1.000000     O
    O   1.0     0.938682     0.683198     0.164569  Biso 1.000000     O
    O   1.0     0.858139     0.563965     0.608019  Biso 1.000000     O
    O   1.0     0.951024     0.000000     0.164568  Biso 1.000000     O
    O   1.0     0.870480     0.000000     0.608018  Biso 1.000000     O
    O   1.0     0.267243     0.043631     0.186587  Biso 1.000000     O
    O   1.0     0.186699    -0.075601     0.630037  Biso 1.000000     O
    O   1.0     0.279587     0.716406     0.186589  Biso 1.000000     O
    O   1.0     0.199043     0.597174     0.630039  Biso 1.000000     O
    O   1.0     0.772321     0.043632     0.186588  Biso 1.000000     O
    O   1.0     0.691778    -0.075600     0.630038  Biso 1.000000     O
    O   1.0     0.784665     0.716406     0.186589  Biso 1.000000     O
    O   1.0     0.704122     0.597174     0.630039  Biso 1.000000     O
    O   1.0     0.321223     0.094376     0.096512  Biso 1.000000     O
    O   1.0     0.240679    -0.024857     0.539962  Biso 1.000000     O
    O   1.0     0.333564     0.767144     0.096510  Biso 1.000000     O
    O   1.0     0.253021     0.647911     0.539959  Biso 1.000000     O
    O   1.0     0.826301     0.094376     0.096512  Biso 1.000000     O
    O   1.0     0.745757    -0.024857     0.539962  Biso 1.000000     O
    O   1.0     0.838643     0.767144     0.096511  Biso 1.000000     O
    O   1.0     0.758099     0.647912     0.539960  Biso 1.000000     O
   Ga   1.0     0.193974     0.050457     0.098609  Biso 1.000000    Ga
   Ga   1.0     0.113431    -0.068775     0.542059  Biso 1.000000    Ga
   Ga   1.0     0.206317     0.723226     0.098608  Biso 1.000000    Ga
   Ga   1.0     0.125773     0.603994     0.542058  Biso 1.000000    Ga
   Ga   1.0     0.699052     0.050457     0.098609  Biso 1.000000    Ga
   Ga   1.0     0.618509    -0.068775     0.542059  Biso 1.000000    Ga
   Ga   1.0     0.711395     0.723227     0.098608  Biso 1.000000    Ga
   Ga   1.0     0.630851     0.603994     0.542058  Biso 1.000000    Ga
   Ga   1.0     0.446464     0.047599     0.098601  Biso 1.000000    Ga
   Ga   1.0     0.365921    -0.071633     0.542051  Biso 1.000000    Ga
   Ga   1.0     0.458806     0.720368     0.098600  Biso 1.000000    Ga
   Ga   1.0     0.378263     0.601135     0.542050  Biso 1.000000    Ga
   Ga   1.0     0.951542     0.047599     0.098601  Biso 1.000000    Ga
   Ga   1.0     0.870999    -0.071633     0.542051  Biso 1.000000    Ga
   Ga   1.0     0.963885     0.720368     0.098600  Biso 1.000000    Ga
   Ga   1.0     0.883341     0.601135     0.542050  Biso 1.000000    Ga
