#======================================================================

# CRYSTAL DATA

#----------------------------------------------------------------------

data_VESTA_phase_1


_pd_phase_name                         MOF
_cell_length_a                         21.50800
_cell_length_b                         12.62200
_cell_length_c                         12.62300
_cell_angle_alpha                      92.02800
_cell_angle_beta                       92.87600
_cell_angle_gamma                      92.89500
_symmetry_space_group_name_H-M         "P 1"
_symmetry_Int_Tables_number            1

loop_
_symmetry_equiv_pos_as_xyz
   "x, y, z"

loop_
   _atom_site_label
   _atom_site_occupancy
   _atom_site_fract_x
   _atom_site_fract_y
   _atom_site_fract_z
   _atom_site_adp_type
   _atom_site_B_iso_or_equiv
   _atom_site_type_symbol
    H   1.0     0.501761     0.172037     0.426992  Biso 1.000000     H
    H   1.0     0.000000     0.172123     0.427252  Biso 1.000000     H
    H   1.0     0.008995     0.097841     0.758213  Biso 1.000000     H
    H   1.0     0.509021     0.097655     0.757919  Biso 1.000000     H
    H   1.0     0.259619     0.703413     0.674331  Biso 1.000000     H
    H   1.0     0.759774     0.702189     0.673182  Biso 1.000000     H
    H   1.0     0.240910     0.242156     0.901465  Biso 1.000000     H
    H   1.0     0.740677     0.241132     0.901217  Biso 1.000000     H
    H   1.0     0.330923     0.412988     0.109601  Biso 1.000000     H
    H   1.0     0.830992     0.412265     0.109810  Biso 1.000000     H
    H   1.0     0.064135     0.892837     0.695178  Biso 1.000000     H
    H   1.0     0.564408     0.891762     0.695552  Biso 1.000000     H
    H   1.0     0.158664     0.823582     0.382982  Biso 1.000000     H
    H   1.0     0.658591     0.823036     0.382821  Biso 1.000000     H
    H   1.0     0.228128     0.778852     0.847883  Biso 1.000000     H
    H   1.0     0.728505     0.777107     0.847135  Biso 1.000000     H
    H   1.0     0.011519     0.562769     0.078885  Biso 1.000000     H
    H   1.0     0.511663     0.562733     0.079020  Biso 1.000000     H
    H   1.0     0.009750     0.672975     0.702922  Biso 1.000000     H
    H   1.0     0.509738     0.674781     0.703326  Biso 1.000000     H
    H   1.0     0.271488     0.222874     0.152902  Biso 1.000000     H
    H   1.0     0.771865     0.221129     0.152153  Biso 1.000000     H
    H   1.0     0.478257     0.848243     0.778956  Biso 1.000000     H
    H   1.0     0.978688     0.846805     0.778415  Biso 1.000000     H
    H   1.0     0.314202     0.695386     0.892747  Biso 1.000000     H
    H   1.0     0.814476     0.695129     0.892883  Biso 1.000000     H
    H   1.0     0.488330     0.437248     0.921017  Biso 1.000000     H
    H   1.0     0.988475     0.437212     0.921152  Biso 1.000000     H
    H   1.0     0.259317     0.758849     0.098820  Biso 1.000000     H
    H   1.0     0.759084     0.757825     0.098572  Biso 1.000000     H
    H   1.0     0.435586     0.108219     0.304485  Biso 1.000000     H
    H   1.0     0.935859     0.107144     0.304859  Biso 1.000000     H
    H   1.0     0.442475     0.398758     0.089170  Biso 1.000000     H
    H   1.0     0.942592     0.398515     0.089141  Biso 1.000000     H
    H   1.0     0.169001     0.587716     0.890226  Biso 1.000000     H
    H   1.0     0.669071     0.586993     0.890436  Biso 1.000000     H
    H   1.0     0.251859     0.427478     0.171719  Biso 1.000000     H
    H   1.0     0.751827     0.426675     0.172099  Biso 1.000000     H
    H   1.0     0.307375     0.910188     0.601535  Biso 1.000000     H
    H   1.0     0.807399     0.910446     0.601218  Biso 1.000000     H
    H   1.0     0.248167     0.573306     0.827938  Biso 1.000000     H
    H   1.0     0.748135     0.572503     0.828318  Biso 1.000000     H
    H   1.0     0.341402     0.176945     0.617216  Biso 1.000000     H
    H   1.0     0.841330     0.176399     0.617055  Biso 1.000000     H
    H   1.0     0.192824     0.720565     0.511620  Biso 1.000000     H
    H   1.0     0.692767     0.719951     0.510810  Biso 1.000000     H
    H   1.0     0.192595     0.089535     0.398819  Biso 1.000000     H
    H   1.0     0.692619     0.089792     0.398502  Biso 1.000000     H
    H   1.0     0.490256     0.325200     0.296711  Biso 1.000000     H
    H   1.0     0.990244     0.327006     0.297115  Biso 1.000000     H
    H   1.0     0.307226     0.280030     0.489227  Biso 1.000000     H
    H   1.0     0.807170     0.279416     0.488417  Biso 1.000000     H
    H   1.0     0.442854     0.512044     0.720144  Biso 1.000000     H
    H   1.0     0.942647     0.510623     0.720406  Biso 1.000000     H
    H   1.0     0.185518     0.304852     0.107153  Biso 1.000000     H
    H   1.0     0.685792     0.304595     0.107290  Biso 1.000000     H
    H   1.0    -0.001896     0.827858     0.572785  Biso 1.000000     H
    H   1.0     0.498232     0.827944     0.573045  Biso 1.000000     H
    H   1.0     0.091441     0.617503     0.176322  Biso 1.000000     H
    H   1.0     0.591437     0.616747     0.177459  Biso 1.000000     H
    H   1.0     0.394990     0.892053     0.244350  Biso 1.000000     H
    H   1.0     0.894772     0.890625     0.243864  Biso 1.000000     H
    H   1.0     0.238498     0.921259     0.437394  Biso 1.000000     H
    H   1.0     0.738421     0.920894     0.437112  Biso 1.000000     H
    H   1.0     0.408557     0.383234     0.822578  Biso 1.000000     H
    H   1.0     0.908552     0.382478     0.823715  Biso 1.000000     H
    H   1.0     0.080990     0.109884     0.412762  Biso 1.000000     H
    H   1.0     0.581029     0.110381     0.412340  Biso 1.000000     H
    H   1.0     0.057402     0.601466     0.910895  Biso 1.000000     H
    H   1.0     0.557518     0.601223     0.910867  Biso 1.000000     H
    H   1.0     0.105221     0.109356     0.756173  Biso 1.000000     H
    H   1.0     0.605004     0.107928     0.755687  Biso 1.000000     H
    H   1.0     0.418965     0.889601     0.587697  Biso 1.000000     H
    H   1.0     0.919004     0.890097     0.587275  Biso 1.000000     H
    H   1.0     0.240219     0.297792     0.326855  Biso 1.000000     H
    H   1.0     0.740374     0.296568     0.325706  Biso 1.000000     H
    H   1.0     0.261573     0.079087     0.562925  Biso 1.000000     H
    H   1.0     0.761495     0.078722     0.562643  Biso 1.000000     H
    H   1.0     0.144860     0.244246     0.890467  Biso 1.000000     H
    H   1.0     0.644428     0.243564     0.890464  Biso 1.000000     H
    H   1.0     0.355566     0.756417     0.109573  Biso 1.000000     H
    H   1.0     0.855133     0.755735     0.109570  Biso 1.000000     H
    H   1.0     0.021305     0.153176     0.221622  Biso 1.000000     H
    H   1.0     0.521737     0.151738     0.221081  Biso 1.000000     H
    H   1.0     0.057346     0.489358     0.279630  Biso 1.000000     H
    H   1.0     0.557140     0.487937     0.279893  Biso 1.000000     H
    H   1.0     0.490973     0.902326     0.242118  Biso 1.000000     H
    H   1.0     0.990998     0.902140     0.241824  Biso 1.000000     H
    C   1.0     0.376999     0.193043     0.409622  Biso 1.000000     C
    C   1.0     0.877093     0.192235     0.409417  Biso 1.000000     C
    C   1.0     0.212009     0.089377     0.568283  Biso 1.000000     C
    C   1.0     0.711923     0.088958     0.567958  Biso 1.000000     C
    C   1.0     0.288071     0.911023     0.432079  Biso 1.000000     C
    C   1.0     0.787984     0.910603     0.431754  Biso 1.000000     C
    C   1.0     0.105742     0.847950     0.689428  Biso 1.000000     C
    C   1.0     0.605965     0.846802     0.689438  Biso 1.000000     C
    C   1.0     0.166132     0.506679     0.173821  Biso 1.000000     C
    C   1.0     0.666095     0.505906     0.174383  Biso 1.000000     C
    C   1.0     0.270291     0.920900     0.235353  Biso 1.000000     C
    C   1.0     0.769918     0.919476     0.235048  Biso 1.000000     C
    C   1.0     0.389982     0.892292     0.514801  Biso 1.000000     C
    C   1.0     0.889953     0.892340     0.514404  Biso 1.000000     C
    C   1.0     0.479916     0.159822     0.501725  Biso 1.000000     C
    C   1.0     0.980001     0.159812     0.501932  Biso 1.000000     C
    C   1.0     0.076520     0.523299     0.904549  Biso 1.000000     C
    C   1.0     0.576507     0.522953     0.904535  Biso 1.000000     C
    C   1.0     0.377917     0.122974     0.112970  Biso 1.000000     C
    C   1.0     0.878509     0.121344     0.113001  Biso 1.000000     C
    C   1.0     0.416372     0.885275     0.415030  Biso 1.000000     C
    C   1.0     0.916268     0.884868     0.414597  Biso 1.000000     C
    C   1.0     0.123143     0.106256     0.676943  Biso 1.000000     C
    C   1.0     0.622961     0.105277     0.676480  Biso 1.000000     C
    C   1.0     0.230036     0.502254     0.159680  Biso 1.000000     C
    C   1.0     0.729981     0.501433     0.160084  Biso 1.000000     C
    C   1.0     0.371636     0.887193     0.878865  Biso 1.000000     C
    C   1.0     0.872277     0.886688     0.878427  Biso 1.000000     C
    C   1.0     0.126932     0.323461     0.893643  Biso 1.000000     C
    C   1.0     0.626618     0.322866     0.893638  Biso 1.000000     C
    C   1.0     0.428613     0.587212     0.753790  Biso 1.000000     C
    C   1.0     0.928561     0.585958     0.753906  Biso 1.000000     C
    C   1.0     0.357250     0.165575     0.217857  Biso 1.000000     C
    C   1.0     0.857572     0.164028     0.217657  Biso 1.000000     C
    C   1.0     0.355814     0.689676     0.847850  Biso 1.000000     C
    C   1.0     0.856040     0.689068     0.847917  Biso 1.000000     C
    C   1.0     0.480392     0.764917     0.080576  Biso 1.000000     C
    C   1.0     0.979846     0.764870     0.080572  Biso 1.000000     C
    C   1.0     0.063053     0.331714     0.907290  Biso 1.000000     C
    C   1.0     0.562739     0.331395     0.907242  Biso 1.000000     C
    C   1.0     0.333844     0.585702     0.115173  Biso 1.000000     C
    C   1.0     0.833687     0.584957     0.115243  Biso 1.000000     C
    C   1.0     0.019993     0.840169     0.498105  Biso 1.000000     C
    C   1.0     0.520078     0.840159     0.498312  Biso 1.000000     C
    C   1.0     0.015110     0.878669     0.314398  Biso 1.000000     C
    C   1.0     0.515114     0.878781     0.314630  Biso 1.000000     C
    C   1.0     0.394029     0.153179     0.310599  Biso 1.000000     C
    C   1.0     0.894252     0.152031     0.310609  Biso 1.000000     C
    C   1.0     0.326522     0.904290     0.523361  Biso 1.000000     C
    C   1.0     0.826495     0.904275     0.523019  Biso 1.000000     C
    C   1.0     0.110040     0.107641     0.485633  Biso 1.000000     C
    C   1.0     0.610012     0.107689     0.485236  Biso 1.000000     C
    C   1.0     0.301415     0.217368     0.224294  Biso 1.000000     C
    C   1.0     0.801712     0.215810     0.223668  Biso 1.000000     C
    C   1.0     0.215978     0.743328     0.678882  Biso 1.000000     C
    C   1.0     0.716147     0.742099     0.678052  Biso 1.000000     C
    C   1.0     0.127025     0.409891     0.192283  Biso 1.000000     C
    C   1.0     0.627048     0.409040     0.192588  Biso 1.000000     C
    C   1.0     0.071433     0.414023     0.246131  Biso 1.000000     C
    C   1.0     0.571381     0.412769     0.246247  Biso 1.000000     C
    C   1.0     0.466081     0.679274     0.743218  Biso 1.000000     C
    C   1.0     0.966157     0.677800     0.742960  Biso 1.000000     C
    C   1.0     0.139974     0.514796     0.892462  Biso 1.000000     C
    C   1.0     0.639950     0.514170     0.892560  Biso 1.000000     C
    C   1.0     0.235106     0.686185     0.121924  Biso 1.000000     C
    C   1.0     0.734948     0.685251     0.122024  Biso 1.000000     C
    C   1.0     0.178556     0.754078     0.586829  Biso 1.000000     C
    C   1.0     0.678609     0.753205     0.586200  Biso 1.000000     C
    C   1.0     0.173498     0.095706     0.477017  Biso 1.000000     C
    C   1.0     0.673471     0.095691     0.476676  Biso 1.000000     C
    C   1.0     0.359396     0.394387     0.833320  Biso 1.000000     C
    C   1.0     0.859354     0.393613     0.834108  Biso 1.000000     C
    C   1.0     0.283847     0.257882     0.321985  Biso 1.000000     C
    C   1.0     0.784016     0.256653     0.321155  Biso 1.000000     C
    C   1.0     0.140640     0.606368     0.165929  Biso 1.000000     C
    C   1.0     0.640598     0.605594     0.166716  Biso 1.000000     C
    C   1.0     0.083910     0.826120     0.493737  Biso 1.000000     C
    C   1.0     0.583946     0.825750     0.493729  Biso 1.000000     C
    C   1.0     0.484880     0.121200     0.685407  Biso 1.000000     C
    C   1.0     0.984883     0.121312     0.685639  Biso 1.000000     C
    C   1.0     0.187038     0.092727     0.668568  Biso 1.000000     C
    C   1.0     0.686852     0.091788     0.668161  Biso 1.000000     C
    C   1.0     0.266243     0.591632     0.131909  Biso 1.000000     C
    C   1.0     0.766116     0.590756     0.132101  Biso 1.000000     C
    C   1.0     0.109480     0.834133     0.394120  Biso 1.000000     C
    C   1.0     0.609440     0.833784     0.394057  Biso 1.000000     C
    C   1.0     0.143954     0.310913     0.152120  Biso 1.000000     C
    C   1.0     0.644180     0.310305     0.152187  Biso 1.000000     C
    C   1.0     0.083725     0.115113     0.585440  Biso 1.000000     C
    C   1.0     0.583622     0.114706     0.585007  Biso 1.000000     C
    C   1.0     0.390553     0.166197     0.605980  Biso 1.000000     C
    C   1.0     0.890513     0.165848     0.605917  Biso 1.000000     C
    C   1.0     0.230076     0.080506     0.764989  Biso 1.000000     C
    C   1.0     0.729703     0.079080     0.764684  Biso 1.000000     C
    C   1.0     0.121485     0.878637     0.887036  Biso 1.000000     C
    C   1.0     0.622077     0.877007     0.887067  Biso 1.000000     C
    C   1.0     0.448400     0.776706     0.784208  Biso 1.000000     C
    C   1.0     0.948706     0.775441     0.783806  Biso 1.000000     C
    C   1.0     0.313141     0.908193     0.331876  Biso 1.000000     C
    C   1.0     0.812955     0.907254     0.331469  Biso 1.000000     C
    C   1.0     0.142422     0.835953     0.782380  Biso 1.000000     C
    C   1.0     0.642744     0.834406     0.782180  Biso 1.000000     C
    C   1.0     0.372945     0.590941     0.807449  Biso 1.000000     C
    C   1.0     0.872969     0.590090     0.807754  Biso 1.000000     C
    C   1.0     0.416048     0.174231     0.506308  Biso 1.000000     C
    C   1.0     0.916084     0.173861     0.506300  Biso 1.000000     C
    C   1.0     0.127716     0.113293     0.121610  Biso 1.000000     C
    C   1.0     0.628358     0.112788     0.121172  Biso 1.000000     C
    C   1.0     0.437255     0.668587     0.092795  Biso 1.000000     C
    C   1.0     0.936941     0.668267     0.092747  Biso 1.000000     C
    C   1.0     0.462107     0.568214     0.089322  Biso 1.000000     C
    C   1.0     0.961955     0.568030     0.089239  Biso 1.000000     C
    C   1.0     0.122901     0.807746     0.590620  Biso 1.000000     C
    C   1.0     0.622994     0.806938     0.590415  Biso 1.000000     C
    C   1.0     0.233877     0.409225     0.867936  Biso 1.000000     C
    C   1.0     0.733751     0.408349     0.868128  Biso 1.000000     C
    C   1.0     0.270013     0.498548     0.839953  Biso 1.000000     C
    C   1.0     0.769957     0.497727     0.840357  Biso 1.000000     C
    C   1.0     0.016116     0.131740     0.591234  Biso 1.000000     C
    C   1.0     0.516044     0.131530     0.590913  Biso 1.000000     C
    C   1.0     0.033836     0.322181     0.257076  Biso 1.000000     C
    C   1.0     0.533912     0.320707     0.256819  Biso 1.000000     C
    C   1.0     0.198282     0.784171     0.776368  Biso 1.000000     C
    C   1.0     0.698579     0.782613     0.775743  Biso 1.000000     C
    C   1.0     0.333899     0.494075     0.825654  Biso 1.000000     C
    C   1.0     0.833862     0.493302     0.826216  Biso 1.000000     C
    C   1.0     0.360044     0.485811     0.107477  Biso 1.000000     C
    C   1.0     0.860020     0.485185     0.107575  Biso 1.000000     C
    C   1.0     0.392529     0.782625     0.835998  Biso 1.000000     C
    C   1.0     0.892920     0.781821     0.835752  Biso 1.000000     C
    C   1.0     0.483950     0.868451     0.409124  Biso 1.000000     C
    C   1.0     0.983877     0.868241     0.408803  Biso 1.000000     C
    C   1.0     0.107073     0.218160     0.164285  Biso 1.000000     C
    C   1.0     0.607465     0.217356     0.164039  Biso 1.000000     C
    C   1.0     0.051287     0.224540     0.216231  Biso 1.000000     C
    C   1.0     0.551594     0.223275     0.215829  Biso 1.000000     C
    C   1.0     0.321385     0.246776     0.413837  Biso 1.000000     C
    C   1.0     0.821438     0.245903     0.413208  Biso 1.000000     C
    C   1.0     0.038039     0.431951     0.910797  Biso 1.000000     C
    C   1.0     0.537886     0.431768     0.910715  Biso 1.000000     C
    C   1.0     0.377033     0.894705     0.323557  Biso 1.000000     C
    C   1.0     0.876851     0.893724     0.323094  Biso 1.000000     C
    C   1.0     0.265046     0.314730     0.878013  Biso 1.000000     C
    C   1.0     0.764888     0.313796     0.878113  Biso 1.000000     C
    C   1.0     0.020147     0.235111     0.919465  Biso 1.000000     C
    C   1.0     0.519601     0.235064     0.919461  Biso 1.000000     C
    C   1.0     0.166307     0.415024     0.884793  Biso 1.000000     C
    C   1.0     0.666150     0.414279     0.884864  Biso 1.000000     C
    C   1.0     0.373375     0.677115     0.106399  Biso 1.000000     C
    C   1.0     0.873062     0.676520     0.106394  Biso 1.000000     C
    C   1.0     0.423487     0.477028     0.095502  Biso 1.000000     C
    C   1.0     0.923474     0.476682     0.095487  Biso 1.000000     C
    N   1.0     0.075789     0.859166     0.306845  Biso 1.000000     N
    N   1.0     0.575745     0.859045     0.306874  Biso 1.000000     N
    N   1.0     0.174402     0.693726     0.141259  Biso 1.000000     N
    N   1.0     0.674320     0.692894     0.141801  Biso 1.000000     N
    N   1.0     0.424249     0.140936     0.693162  Biso 1.000000     N
    N   1.0     0.924204     0.140815     0.693192  Biso 1.000000     N
    N   1.0     0.325673     0.307087     0.858236  Biso 1.000000     N
    N   1.0     0.825592     0.306255     0.858778  Biso 1.000000     N
    O   1.0     0.410691     0.968357     0.874828  Biso 1.000000     O
    O   1.0     0.911421     0.967772     0.874127  Biso 1.000000     O
    O   1.0     0.295541     0.929776     0.146222  Biso 1.000000     O
    O   1.0     0.794797     0.926325     0.145392  Biso 1.000000     O
    O   1.0     0.431869     0.088882     0.111020  Biso 1.000000     O
    O   1.0     0.932822     0.088681     0.111332  Biso 1.000000     O
    O   1.0     0.212320     0.920978     0.249584  Biso 1.000000     O
    O   1.0     0.712047     0.921076     0.249814  Biso 1.000000     O
    O   1.0     0.037755     0.750315     0.079098  Biso 1.000000     O
    O   1.0     0.538244     0.750039     0.079012  Biso 1.000000     O
    O   1.0     0.455600     0.854639     0.073683  Biso 1.000000     O
    O   1.0     0.954851     0.854373     0.073577  Biso 1.000000     O
    O   1.0     0.461749     0.249942     0.921025  Biso 1.000000     O
    O   1.0     0.962239     0.249666     0.920938  Biso 1.000000     O
    O   1.0     0.181905     0.111278     0.088571  Biso 1.000000     O
    O   1.0     0.682607     0.111093     0.088221  Biso 1.000000     O
    O   1.0     0.205196     0.073656     0.854645  Biso 1.000000     O
    O   1.0     0.704452     0.070206     0.853815  Biso 1.000000     O
    O   1.0     0.317387     0.888888     0.911816  Biso 1.000000     O
    O   1.0     0.818088     0.888703     0.911466  Biso 1.000000     O
    O   1.0     0.287947     0.078905     0.750222  Biso 1.000000     O
    O   1.0     0.787673     0.079003     0.750453  Biso 1.000000     O
    O   1.0     0.088573     0.032209     0.125910  Biso 1.000000     O
    O   1.0     0.589303     0.031624     0.125208  Biso 1.000000     O
    O   1.0     0.067171     0.911300     0.888705  Biso 1.000000     O
    O   1.0     0.568125     0.911099     0.889017  Biso 1.000000     O
    O   1.0     0.160497     0.874716     0.968224  Biso 1.000000     O
    O   1.0     0.661120     0.871535     0.968091  Biso 1.000000     O
    O   1.0     0.338874     0.128446     0.031946  Biso 1.000000     O
    O   1.0     0.839497     0.125265     0.031813  Biso 1.000000     O
    O   1.0     0.045143     0.145608     0.926460  Biso 1.000000     O
    O   1.0     0.544393     0.145342     0.926354  Biso 1.000000     O
   Cd   1.0     0.374871     0.139409     0.860896  Biso 1.000000    Cd
   Cd   1.0     0.875136     0.138774     0.860806  Biso 1.000000    Cd
   Cd   1.0     0.250004     0.000822     0.000236  Biso 1.000000    Cd
   Cd   1.0     0.749995    -0.000822    -0.000236  Biso 1.000000    Cd
   Cd   1.0     0.124857     0.861207     0.139230  Biso 1.000000    Cd
   Cd   1.0     0.625122     0.860572     0.139141  Biso 1.000000    Cd
   Cd   1.0     0.000000     0.000000    -0.000000  Biso 1.000000    Cd
   Cd   1.0     0.500000     0.000000     0.000000  Biso 1.000000    Cd
