#======================================================================

# CRYSTAL DATA

#----------------------------------------------------------------------

data_VESTA_phase_1


_pd_phase_name                         MOF
_cell_length_a                         13.15500
_cell_length_b                         14.33600
_cell_length_c                         16.15100
_cell_angle_alpha                      90.87000
_cell_angle_beta                       90.20800
_cell_angle_gamma                      89.56000
_symmetry_space_group_name_H-M         "P 1"
_symmetry_Int_Tables_number            1

loop_
_symmetry_equiv_pos_as_xyz
   "x, y, z"

loop_
   _atom_site_label
   _atom_site_occupancy
   _atom_site_fract_x
   _atom_site_fract_y
   _atom_site_fract_z
   _atom_site_adp_type
   _atom_site_B_iso_or_equiv
   _atom_site_type_symbol
    H   1.0     0.040689     0.395614     0.249262  Biso 1.000000     H
    H   1.0     0.130385     0.246720     0.186846  Biso 1.000000     H
    H   1.0     0.905910     0.582853     0.776360  Biso 1.000000     H
    H   1.0     0.830350     0.728127     0.700002  Biso 1.000000     H
    H   1.0     0.554645     0.072902     0.019427  Biso 1.000000     H
    H   1.0     0.701682     0.162394     0.945719  Biso 1.000000     H
    H   1.0     0.376309     0.916934     0.510702  Biso 1.000000     H
    H   1.0     0.223338     0.828422     0.442034  Biso 1.000000     H
    H   1.0     0.894093     0.407034     0.784802  Biso 1.000000     H
    H   1.0     0.805200     0.259632     0.845399  Biso 1.000000     H
    H   1.0     0.040117     0.586963     0.282508  Biso 1.000000     H
    H   1.0     0.130045     0.733840     0.344184  Biso 1.000000     H
    H   1.0     0.367806     0.045394     0.000000  Biso 1.000000     H
    H   1.0     0.223103     0.145036     0.084693  Biso 1.000000     H
    H   1.0     0.593899     0.951124     0.524461  Biso 1.000000     H
    H   1.0     0.741097     0.850024     0.589285  Biso 1.000000     H
    H   1.0     0.462285     0.069036     0.526764  Biso 1.000000     H
    H   1.0     0.547841     0.161046     0.546767  Biso 1.000000     H
    H   1.0     0.398310     0.166736     0.643080  Biso 1.000000     H
    H   1.0     0.313502     0.177279     0.557735  Biso 1.000000     H
    H   1.0     0.399918     0.268646     0.582555  Biso 1.000000     H
    H   1.0     0.536054     0.920691     0.046263  Biso 1.000000     H
    H   1.0     0.410342     0.884394     0.066293  Biso 1.000000     H
    H   1.0     0.597016     0.753148     0.000000  Biso 1.000000     H
    H   1.0     0.470217     0.719281     0.082957  Biso 1.000000     H
    H   1.0     0.536139     0.796609     0.149770  Biso 1.000000     H
    H   1.0     0.893001     0.504225     0.266868  Biso 1.000000     H
    H   1.0     0.789952     0.579113     0.291248  Biso 1.000000     H
    H   1.0     0.798494     0.442399     0.386053  Biso 1.000000     H
    H   1.0     0.787660     0.363900     0.300542  Biso 1.000000     H
    H   1.0     0.683805     0.438589     0.327850  Biso 1.000000     H
    H   1.0     0.598379     0.694566     0.583634  Biso 1.000000     H
    H   1.0     0.663748     0.635477     0.662881  Biso 1.000000     H
    H   1.0     0.541509     0.540108     0.521387  Biso 1.000000     H
    H   1.0     0.610922     0.479599     0.599643  Biso 1.000000     H
    H   1.0     0.676289     0.546974     0.527347  Biso 1.000000     H
    H   1.0     0.459008     0.275524     0.348824  Biso 1.000000     H
    H   1.0     0.403485     0.308043     0.445195  Biso 1.000000     H
    H   1.0     0.572150     0.386987     0.424421  Biso 1.000000     H
    H   1.0     0.633697     0.277133     0.414767  Biso 1.000000     H
    H   1.0     0.579264     0.313021     0.510873  Biso 1.000000     H
    H   1.0     0.401609     0.761808     0.857710  Biso 1.000000     H
    H   1.0     0.399525     0.714115    -0.040922  Biso 1.000000     H
    H   1.0     0.270402     0.880525     0.897378  Biso 1.000000     H
    H   1.0     0.267297     0.838115     0.000578  Biso 1.000000     H
    H   1.0     0.224958     0.766706    -0.082772  Biso 1.000000     H
    H   1.0     0.416784     0.570650     0.762153  Biso 1.000000     H
    H   1.0     0.483081     0.490455     0.697302  Biso 1.000000     H
    H   1.0     0.648725     0.530758     0.767144  Biso 1.000000     H
    H   1.0     0.557469     0.500163     0.841764  Biso 1.000000     H
    H   1.0     0.587049     0.619436     0.827033  Biso 1.000000     H
    H   1.0     0.653607     0.501535     0.097785  Biso 1.000000     H
    H   1.0     0.629269     0.439152     0.189613  Biso 1.000000     H
    H   1.0     0.650199     0.653617     0.182183  Biso 1.000000     H
    H   1.0     0.616076     0.589805     0.271213  Biso 1.000000     H
    H   1.0     0.533108     0.593312     0.184782  Biso 1.000000     H
    H   1.0     0.390119     0.146681     0.413159  Biso 1.000000     H
    H   1.0     0.451564     0.911023     0.921770  Biso 1.000000     H
    H   1.0     0.810054     0.545359     0.142154  Biso 1.000000     H
    H   1.0     0.441674     0.631839     0.631119  Biso 1.000000     H
    H   1.0     0.801230     0.433507     0.157113  Biso 1.000000     H
    H   1.0     0.512340     0.133784     0.400257  Biso 1.000000     H
    H   1.0     0.496307     0.699871     0.700960  Biso 1.000000     H
    H   1.0     0.537829     0.829789     0.921199  Biso 1.000000     H
    C   1.0     0.185435     0.215893     0.311481  Biso 1.000000     C
    C   1.0     0.100337     0.356742     0.370169  Biso 1.000000     C
    C   1.0     0.060112     0.432021     0.424582  Biso 1.000000     C
    C   1.0     0.247077     0.131830     0.297179  Biso 1.000000     C
    C   1.0     0.084616     0.346230     0.285560  Biso 1.000000     C
    C   1.0     0.133029     0.266354     0.252108  Biso 1.000000     C
    C   1.0     0.470502     0.145001     0.525837  Biso 1.000000     C
    C   1.0     0.390832     0.192539     0.579765  Biso 1.000000     C
    C   1.0     0.754856     0.767795     0.816194  Biso 1.000000     C
    C   1.0     0.826168     0.630701     0.888028  Biso 1.000000     C
    C   1.0     0.852513     0.561571     0.952277  Biso 1.000000     C
    C   1.0     0.696304     0.851871     0.797099  Biso 1.000000     C
    C   1.0     0.856421     0.634537     0.805901  Biso 1.000000     C
    C   1.0     0.815757     0.712750     0.764758  Biso 1.000000     C
    C   1.0     0.483368     0.862132     0.040152  Biso 1.000000     C
    C   1.0     0.524203     0.777332     0.084446  Biso 1.000000     C
    C   1.0     0.736573     0.227700     0.065610  Biso 1.000000     C
    C   1.0     0.598927     0.141987     0.135050  Biso 1.000000     C
    C   1.0     0.528682     0.103957     0.197343  Biso 1.000000     C
    C   1.0     0.821973     0.288818     0.046515  Biso 1.000000     C
    C   1.0     0.605561     0.121055     0.051019  Biso 1.000000     C
    C   1.0     0.683932     0.169488     0.011332  Biso 1.000000     C
    C   1.0     0.810064     0.508920     0.268816  Biso 1.000000     C
    C   1.0     0.767002     0.434073     0.323503  Biso 1.000000     C
    C   1.0     0.212796     0.745922     0.554144  Biso 1.000000     C
    C   1.0     0.358580     0.829149     0.618875  Biso 1.000000     C
    C   1.0     0.438601     0.860926     0.676687  Biso 1.000000     C
    C   1.0     0.125562     0.683373     0.539282  Biso 1.000000     C
    C   1.0     0.334625     0.861718     0.540769  Biso 1.000000     C
    C   1.0     0.252352     0.813755     0.503690  Biso 1.000000     C
    C   1.0     0.599470     0.630352     0.619727  Biso 1.000000     C
    C   1.0     0.606554     0.544322     0.564278  Biso 1.000000     C
    C   1.0     0.743985     0.231416     0.721483  Biso 1.000000     C
    C   1.0     0.827583     0.370438     0.664858  Biso 1.000000     C
    C   1.0     0.868673     0.442813     0.610671  Biso 1.000000     C
    C   1.0     0.685998     0.146145     0.733266  Biso 1.000000     C
    C   1.0     0.846459     0.359708     0.748804  Biso 1.000000     C
    C   1.0     0.798783     0.280616     0.781137  Biso 1.000000     C
    C   1.0     0.468549     0.272305     0.416223  Biso 1.000000     C
    C   1.0     0.568982     0.313962     0.443475  Biso 1.000000     C
    C   1.0     0.196417     0.756273     0.221927  Biso 1.000000     C
    C   1.0     0.110030     0.617444     0.163363  Biso 1.000000     C
    C   1.0     0.069981     0.543105     0.109086  Biso 1.000000     C
    C   1.0     0.257606     0.840060     0.235740  Biso 1.000000     C
    C   1.0     0.088326     0.632360     0.246579  Biso 1.000000     C
    C   1.0     0.137528     0.711295     0.279910  Biso 1.000000     C
    C   1.0     0.387763     0.777807     0.923343  Biso 1.000000     C
    C   1.0     0.281909     0.818628    -0.064276  Biso 1.000000     C
    C   1.0     0.206982     0.218417     0.967434  Biso 1.000000     C
    C   1.0     0.342626     0.124423     0.901836  Biso 1.000000     C
    C   1.0     0.418960     0.085814     0.845017  Biso 1.000000     C
    C   1.0     0.125462     0.286164     0.984902  Biso 1.000000     C
    C   1.0     0.324946     0.099109     0.983297  Biso 1.000000     C
    C   1.0     0.247781     0.153043     0.000000  Biso 1.000000     C
    C   1.0     0.490238     0.556332     0.732234  Biso 1.000000     C
    C   1.0     0.576101     0.552077     0.795037  Biso 1.000000     C
    C   1.0     0.741437     0.766712     0.475109  Biso 1.000000     C
    C   1.0     0.602630     0.861661     0.414238  Biso 1.000000     C
    C   1.0     0.523637     0.901502     0.360339  Biso 1.000000     C
    C   1.0     0.820362     0.695249     0.490964  Biso 1.000000     C
    C   1.0     0.630190     0.892118     0.493188  Biso 1.000000     C
    C   1.0     0.709186     0.838217     0.527825  Biso 1.000000     C
    C   1.0     0.662364     0.503204     0.165399  Biso 1.000000     C
    C   1.0     0.613365     0.589828     0.203320  Biso 1.000000     C
    N   1.0     0.460554     0.170884     0.436299  Biso 1.000000     N
    N   1.0     0.468369     0.846175     0.948715  Biso 1.000000     N
    N   1.0     0.774776     0.498164     0.180672  Biso 1.000000     N
    N   1.0     0.503722     0.632990     0.670598  Biso 1.000000     N
    O   1.0     0.084043     0.435914     0.500870  Biso 1.000000     O
    O   1.0    -0.000222     0.492616     0.392613  Biso 1.000000     O
    O   1.0     0.253557     0.094404     0.225443  Biso 1.000000     O
    O   1.0     0.297744     0.095556     0.358062  Biso 1.000000     O
    O   1.0     0.817977     0.572116     0.024144  Biso 1.000000     O
    O   1.0     0.911121     0.493820     0.926846  Biso 1.000000     O
    O   1.0     0.698512     0.888375     0.725420  Biso 1.000000     O
    O   1.0     0.639444     0.888463     0.854044  Biso 1.000000     O
    O   1.0     0.528411     0.135725     0.270210  Biso 1.000000     O
    O   1.0     0.470258     0.037078     0.170653  Biso 1.000000     O
    O   1.0     0.862516     0.288155     0.975539  Biso 1.000000     O
    O   1.0     0.856215     0.344605     0.104112  Biso 1.000000     O
    O   1.0     0.470882     0.806838     0.732955  Biso 1.000000     O
    O   1.0     0.471067     0.944729     0.666892  Biso 1.000000     O
    O   1.0     0.079960     0.683287     0.469451  Biso 1.000000     O
    O   1.0     0.098286     0.630006     0.597626  Biso 1.000000     O
    O   1.0     0.844428     0.444462     0.534052  Biso 1.000000     O
    O   1.0     0.929856     0.502442     0.642401  Biso 1.000000     O
    O   1.0     0.680240     0.111237     0.806107  Biso 1.000000     O
    O   1.0     0.640278     0.106329     0.672002  Biso 1.000000     O
    O   1.0     0.102091     0.530908     0.000000  Biso 1.000000     O
    O   1.0    -0.000456     0.490394     0.138238  Biso 1.000000     O
    O   1.0     0.262343     0.876463     0.308972  Biso 1.000000     O
    O   1.0     0.306928     0.876356     0.176205  Biso 1.000000     O
    O   1.0     0.440233     0.123194     0.777403  Biso 1.000000     O
    O   1.0     0.467402     0.010054     0.867514  Biso 1.000000     O
    O   1.0     0.088983     0.292140     0.058541  Biso 1.000000     O
    O   1.0     0.092023     0.338682     0.927498  Biso 1.000000     O
    O   1.0     0.506973     0.868062     0.288273  Biso 1.000000     O
    O   1.0     0.470989     0.971643     0.388192  Biso 1.000000     O
    O   1.0     0.862269     0.691465     0.562372  Biso 1.000000     O
    O   1.0     0.844133     0.637339     0.433213  Biso 1.000000     O
    S   1.0     0.174207     0.267176     0.409107  Biso 1.000000     S
    S   1.0     0.748900     0.723857     0.915358  Biso 1.000000     S
    S   1.0     0.689446     0.222225     0.165400  Biso 1.000000     S
    S   1.0     0.277500     0.740198     0.647518  Biso 1.000000     S
    S   1.0     0.751761     0.282417     0.625262  Biso 1.000000     S
    S   1.0     0.191698     0.700768     0.126039  Biso 1.000000     S
    S   1.0     0.263791     0.214491     0.871334  Biso 1.000000     S
    S   1.0     0.675030     0.766507     0.382482  Biso 1.000000     S
   In   1.0     0.969024     0.566391     0.517593  Biso 1.000000    In
   In   1.0     0.980553     0.406926     0.000000  Biso 1.000000    In
   In   1.0     0.375294     0.984848     0.269822  Biso 1.000000    In
   In   1.0     0.576239    -0.001972     0.760735  Biso 1.000000    In
