#======================================================================

# CRYSTAL DATA

#----------------------------------------------------------------------

data_VESTA_phase_1


_pd_phase_name                         MOF
_cell_length_a                         18.72800
_cell_length_b                         18.75600
_cell_length_c                         18.76400
_cell_angle_alpha                      60.01800
_cell_angle_beta                       60.12100
_cell_angle_gamma                      60.15600
_symmetry_space_group_name_H-M         "P 1"
_symmetry_Int_Tables_number            1

loop_
_symmetry_equiv_pos_as_xyz
   "x, y, z"

loop_
   _atom_site_label
   _atom_site_occupancy
   _atom_site_fract_x
   _atom_site_fract_y
   _atom_site_fract_z
   _atom_site_adp_type
   _atom_site_B_iso_or_equiv
   _atom_site_type_symbol
    H   1.0     0.733477     0.028518     0.504767  Biso 1.000000     H
    H   1.0     0.026890     0.734275     0.734330  Biso 1.000000     H
    H   1.0     0.505089     0.734089     0.734084  Biso 1.000000     H
    H   1.0     0.733618     0.504853     0.028214  Biso 1.000000     H
    H   1.0     0.734152     0.504616     0.734068  Biso 1.000000     H
    H   1.0     0.027431     0.734022     0.504655  Biso 1.000000     H
    H   1.0     0.504375     0.734106     0.027806  Biso 1.000000     H
    H   1.0     0.734016     0.028133     0.734227  Biso 1.000000     H
    H   1.0     0.734278     0.734443     0.027639  Biso 1.000000     H
    H   1.0     0.027616     0.504409     0.734080  Biso 1.000000     H
    H   1.0     0.504035     0.028349     0.733988  Biso 1.000000     H
    H   1.0     0.734238     0.734164     0.504542  Biso 1.000000     H
    H   1.0     0.972604     0.265990     0.495330  Biso 1.000000     H
    H   1.0     0.265983     0.971872     0.265770  Biso 1.000000     H
    H   1.0     0.265874     0.495391     0.265930  Biso 1.000000     H
    H   1.0     0.495637     0.265886     0.972186  Biso 1.000000     H
    H   1.0     0.494941     0.265923     0.265902  Biso 1.000000     H
    H   1.0     0.266592     0.971481     0.495198  Biso 1.000000     H
    H   1.0     0.266406     0.495154     0.971800  Biso 1.000000     H
    H   1.0     0.973149     0.265723     0.265662  Biso 1.000000     H
    H   1.0     0.265720     0.265601     0.972330  Biso 1.000000     H
    H   1.0     0.495994     0.971668     0.265936  Biso 1.000000     H
    H   1.0     0.972410     0.495599     0.265903  Biso 1.000000     H
    H   1.0     0.265793     0.265831     0.495444  Biso 1.000000     H
    C   1.0     0.569277     0.024384     0.569899  Biso 1.000000     C
    C   1.0     0.613485     0.029789     0.614100  Biso 1.000000     C
    C   1.0     0.023256     0.569925     0.836975  Biso 1.000000     C
    C   1.0     0.028528     0.614118     0.743385  Biso 1.000000     C
    C   1.0     0.570226     0.836930     0.569852  Biso 1.000000     C
    C   1.0     0.614439     0.743354     0.614090  Biso 1.000000     C
    C   1.0     0.836795     0.570235     0.023884  Biso 1.000000     C
    C   1.0     0.743128     0.614399     0.029244  Biso 1.000000     C
    C   1.0     0.570175     0.569872     0.836888  Biso 1.000000     C
    C   1.0     0.614387     0.614123     0.743293  Biso 1.000000     C
    C   1.0     0.023081     0.836988     0.570094  Biso 1.000000     C
    C   1.0     0.028400     0.743349     0.614273  Biso 1.000000     C
    C   1.0     0.569493     0.569946     0.024062  Biso 1.000000     C
    C   1.0     0.613737     0.614213     0.029338  Biso 1.000000     C
    C   1.0     0.836687     0.024125     0.570126  Biso 1.000000     C
    C   1.0     0.742932     0.029654     0.614241  Biso 1.000000     C
    C   1.0     0.569995     0.836994     0.023630  Biso 1.000000     C
    C   1.0     0.614095     0.743438     0.029014  Biso 1.000000     C
    C   1.0     0.023912     0.569624     0.569802  Biso 1.000000     C
    C   1.0     0.028879     0.613946     0.614101  Biso 1.000000     C
    C   1.0     0.569711     0.024088     0.836844  Biso 1.000000     C
    C   1.0     0.613780     0.029584     0.743254  Biso 1.000000     C
    C   1.0     0.836882     0.569875     0.569803  Biso 1.000000     C
    C   1.0     0.743391     0.614133     0.614051  Biso 1.000000     C
    C   1.0     0.976103     0.430394     0.430186  Biso 1.000000     C
    C   1.0     0.971168     0.386059     0.385877  Biso 1.000000     C
    C   1.0     0.430282     0.975932     0.163116  Biso 1.000000     C
    C   1.0     0.386229     0.970429     0.256708  Biso 1.000000     C
    C   1.0     0.163149     0.430130     0.430195  Biso 1.000000     C
    C   1.0     0.256635     0.385865     0.385938  Biso 1.000000     C
    C   1.0     0.430003     0.163028     0.976333  Biso 1.000000     C
    C   1.0     0.385904     0.256577     0.970974  Biso 1.000000     C
    C   1.0     0.429854     0.430142     0.163107  Biso 1.000000     C
    C   1.0     0.385638     0.385882     0.256696  Biso 1.000000     C
    C   1.0     0.163346     0.975881     0.429870  Biso 1.000000     C
    C   1.0     0.257101     0.970351     0.385743  Biso 1.000000     C
    C   1.0     0.430539     0.430049     0.975931  Biso 1.000000     C
    C   1.0     0.386280     0.385783     0.970672  Biso 1.000000     C
    C   1.0     0.976940     0.163022     0.429903  Biso 1.000000     C
    C   1.0     0.971653     0.256650     0.385711  Biso 1.000000     C
    C   1.0     0.163218     0.429799     0.976102  Biso 1.000000     C
    C   1.0     0.256880     0.385623     0.970758  Biso 1.000000     C
    C   1.0     0.430789     0.975619     0.430034  Biso 1.000000     C
    C   1.0     0.386567     0.970217     0.385843  Biso 1.000000     C
    C   1.0     0.976751     0.430086     0.163019  Biso 1.000000     C
    C   1.0     0.971518     0.385880     0.256597  Biso 1.000000     C
    C   1.0     0.429812     0.163075     0.430128  Biso 1.000000     C
    C   1.0     0.385588     0.256646     0.385891  Biso 1.000000     C
    C   1.0     0.699641     0.029847     0.571149  Biso 1.000000     C
    C   1.0     0.028450     0.700284     0.700357  Biso 1.000000     C
    C   1.0     0.571424     0.700211     0.700179  Biso 1.000000     C
    C   1.0     0.699825     0.571259     0.029486  Biso 1.000000     C
    C   1.0     0.700325     0.571073     0.700166  Biso 1.000000     C
    C   1.0     0.028768     0.700123     0.571109  Biso 1.000000     C
    C   1.0     0.570824     0.700254     0.029259  Biso 1.000000     C
    C   1.0     0.699958     0.029632     0.700268  Biso 1.000000     C
    C   1.0     0.700208     0.700454     0.029159  Biso 1.000000     C
    C   1.0     0.028876     0.570920     0.700205  Biso 1.000000     C
    C   1.0     0.570527     0.029758     0.700125  Biso 1.000000     C
    C   1.0     0.700377     0.700246     0.571007  Biso 1.000000     C
    C   1.0     0.971251     0.299892     0.428882  Biso 1.000000     C
    C   1.0     0.300056     0.970373     0.299715  Biso 1.000000     C
    C   1.0     0.299706     0.428937     0.299832  Biso 1.000000     C
    C   1.0     0.429190     0.299752     0.970723  Biso 1.000000     C
    C   1.0     0.428609     0.299801     0.299812  Biso 1.000000     C
    C   1.0     0.300412     0.970154     0.428816  Biso 1.000000     C
    C   1.0     0.300197     0.428755     0.970508  Biso 1.000000     C
    C   1.0     0.971570     0.299723     0.299638  Biso 1.000000     C
    C   1.0     0.299798     0.299580     0.970811  Biso 1.000000     C
    C   1.0     0.429504     0.970253     0.299817  Biso 1.000000     C
    C   1.0     0.971137     0.429092     0.299785  Biso 1.000000     C
    C   1.0     0.299657     0.299757     0.428985  Biso 1.000000     C
    O   1.0     0.491792     0.021154     0.613805  Biso 1.000000     O
    O   1.0     0.020066     0.492461     0.873482  Biso 1.000000     O
    O   1.0     0.614183     0.873579     0.492411  Biso 1.000000     O
    O   1.0     0.873617     0.614110     0.020836  Biso 1.000000     O
    O   1.0     0.492666     0.613724     0.873250  Biso 1.000000     O
    O   1.0     0.020352     0.873465     0.613968  Biso 1.000000     O
    O   1.0     0.613468     0.492514     0.021137  Biso 1.000000     O
    O   1.0     0.872941     0.021096     0.492732  Biso 1.000000     O
    O   1.0     0.492490     0.873325     0.020517  Biso 1.000000     O
    O   1.0     0.021068     0.613574     0.492245  Biso 1.000000     O
    O   1.0     0.613790     0.021096     0.873399  Biso 1.000000     O
    O   1.0     0.873274     0.492318     0.613752  Biso 1.000000     O
    O   1.0     0.979071     0.507940     0.386215  Biso 1.000000     O
    O   1.0     0.507774     0.979160     0.126681  Biso 1.000000     O
    O   1.0     0.126662     0.386203     0.507756  Biso 1.000000     O
    O   1.0     0.385935     0.126400     0.979372  Biso 1.000000     O
    O   1.0     0.385927     0.507589     0.126521  Biso 1.000000     O
    O   1.0     0.126523     0.978976     0.385998  Biso 1.000000     O
    O   1.0     0.508032     0.386184     0.979049  Biso 1.000000     O
    O   1.0     0.980164     0.126524     0.507317  Biso 1.000000     O
    O   1.0     0.127044     0.507231     0.979045  Biso 1.000000     O
    O   1.0     0.386800     0.978529     0.507470  Biso 1.000000     O
    O   1.0     0.979398     0.386194     0.126608  Biso 1.000000     O
    O   1.0     0.507295     0.126737     0.386204  Biso 1.000000     O
    O   1.0     0.508272     0.978855     0.386124  Biso 1.000000     O
    O   1.0     0.979948     0.507547     0.126510  Biso 1.000000     O
    O   1.0     0.385849     0.126417     0.507561  Biso 1.000000     O
    O   1.0     0.126395     0.385927     0.979148  Biso 1.000000     O
    O   1.0     0.507361     0.386288     0.126743  Biso 1.000000     O
    O   1.0     0.979699     0.126537     0.386018  Biso 1.000000     O
    O   1.0     0.386570     0.507484     0.978848  Biso 1.000000     O
    O   1.0     0.127093     0.978924     0.507259  Biso 1.000000     O
    O   1.0     0.507505     0.126695     0.979447  Biso 1.000000     O
    O   1.0     0.978963     0.386439     0.507737  Biso 1.000000     O
    O   1.0     0.386199     0.978922     0.126564  Biso 1.000000     O
    O   1.0     0.126754     0.507683     0.386242  Biso 1.000000     O
    O   1.0     0.020963     0.492071     0.613766  Biso 1.000000     O
    O   1.0     0.492214     0.020863     0.873277  Biso 1.000000     O
    O   1.0     0.873365     0.613798     0.492237  Biso 1.000000     O
    O   1.0     0.614058     0.873624     0.020595  Biso 1.000000     O
    O   1.0     0.614091     0.492415     0.873468  Biso 1.000000     O
    O   1.0     0.873508     0.021012     0.614009  Biso 1.000000     O
    O   1.0     0.491994     0.613803     0.020960  Biso 1.000000     O
    O   1.0     0.019859     0.873485     0.492680  Biso 1.000000     O
    O   1.0     0.872967     0.492798     0.020957  Biso 1.000000     O
    O   1.0     0.613275     0.021462     0.492468  Biso 1.000000     O
    O   1.0     0.020630     0.613810     0.873379  Biso 1.000000     O
    O   1.0     0.492739     0.873268     0.613768  Biso 1.000000     O
   Cu   1.0     0.434625    -0.000188     0.565304  Biso 1.000000    Cu
   Cu   1.0    -0.000371     0.434689     0.000060  Biso 1.000000    Cu
   Cu   1.0     0.565430     0.000165     0.434646  Biso 1.000000    Cu
   Cu   1.0     0.000355     0.565335    -0.000056  Biso 1.000000    Cu
   Cu   1.0     0.434618     0.565318    -0.000119  Biso 1.000000    Cu
   Cu   1.0     0.000318    -0.000018     0.565287  Biso 1.000000    Cu
   Cu   1.0     0.565409     0.434684     0.000124  Biso 1.000000    Cu
   Cu   1.0    -0.000310     0.000002     0.434707  Biso 1.000000    Cu
   Cu   1.0     0.434552    -0.000166    -0.000079  Biso 1.000000    Cu
   Cu   1.0     0.000053     0.565426     0.434571  Biso 1.000000    Cu
   Cu   1.0     0.565461     0.000166     0.000052  Biso 1.000000    Cu
   Cu   1.0    -0.000051     0.434582     0.565420  Biso 1.000000    Cu
