#======================================================================

# CRYSTAL DATA

#----------------------------------------------------------------------

data_VESTA_phase_1


_pd_phase_name                         MOF
_cell_length_a                         18.75200
_cell_length_b                         18.74800
_cell_length_c                         18.76000
_cell_angle_alpha                      60.04000
_cell_angle_beta                       59.95400
_cell_angle_gamma                      60.18100
_symmetry_space_group_name_H-M         "P 1"
_symmetry_Int_Tables_number            1

loop_
_symmetry_equiv_pos_as_xyz
   "x, y, z"

loop_
   _atom_site_label
   _atom_site_occupancy
   _atom_site_fract_x
   _atom_site_fract_y
   _atom_site_fract_z
   _atom_site_adp_type
   _atom_site_B_iso_or_equiv
   _atom_site_type_symbol
    H   1.0     0.470671     0.996253     0.766466  Biso 1.000000     H
    H   1.0     0.996809     0.469493     0.766781  Biso 1.000000     H
    H   1.0     0.765214     0.765406     0.473313  Biso 1.000000     H
    H   1.0     0.765171     0.765078     0.995623  Biso 1.000000     H
    H   1.0     0.472177     0.766036     0.765958  Biso 1.000000     H
    H   1.0     0.994922     0.765553     0.765792  Biso 1.000000     H
    H   1.0     0.766858     0.470170     0.996400  Biso 1.000000     H
    H   1.0     0.766199     0.995326     0.471954  Biso 1.000000     H
    H   1.0     0.471829     0.766340     0.995558  Biso 1.000000     H
    H   1.0     0.994948     0.765960     0.472665  Biso 1.000000     H
    H   1.0     0.766013     0.994748     0.766273  Biso 1.000000     H
    H   1.0     0.766576     0.470702     0.766703  Biso 1.000000     H
    H   1.0     0.003151     0.530496     0.233016  Biso 1.000000     H
    H   1.0     0.529323     0.003786     0.233478  Biso 1.000000     H
    H   1.0     0.234619     0.234677     0.526654  Biso 1.000000     H
    H   1.0     0.234878     0.234967     0.004304  Biso 1.000000     H
    H   1.0     0.233196     0.529319     0.233445  Biso 1.000000     H
    H   1.0     0.233920     0.005331     0.233682  Biso 1.000000     H
    H   1.0     0.528107     0.233751     0.004426  Biso 1.000000     H
    H   1.0     0.004976     0.233948     0.527304  Biso 1.000000     H
    H   1.0     0.233245     0.529945     0.003529  Biso 1.000000     H
    H   1.0     0.233825     0.004691     0.527962  Biso 1.000000     H
    H   1.0     0.005044     0.234555     0.234049  Biso 1.000000     H
    H   1.0     0.527776     0.233997     0.234053  Biso 1.000000     H
    C   1.0     0.469604     0.929658     0.800278  Biso 1.000000     C
    C   1.0     0.930230     0.468249     0.800741  Biso 1.000000     C
    C   1.0     0.799297     0.799449     0.471662  Biso 1.000000     C
    C   1.0     0.799228     0.799059     0.929130  Biso 1.000000     C
    C   1.0     0.470453     0.800103     0.799992  Biso 1.000000     C
    C   1.0     0.928506     0.799340     0.799790  Biso 1.000000     C
    C   1.0     0.800830     0.468635     0.929959  Biso 1.000000     C
    C   1.0     0.799874     0.928833     0.470885  Biso 1.000000     C
    C   1.0     0.470267     0.800272     0.929190  Biso 1.000000     C
    C   1.0     0.928578     0.799767     0.471296  Biso 1.000000     C
    C   1.0     0.799709     0.928299     0.800061  Biso 1.000000     C
    C   1.0     0.800655     0.468945     0.800704  Biso 1.000000     C
    C   1.0     0.069726     0.531751     0.199119  Biso 1.000000     C
    C   1.0     0.530357     0.070392     0.199690  Biso 1.000000     C
    C   1.0     0.200558     0.200599     0.528328  Biso 1.000000     C
    C   1.0     0.200795     0.200993     0.070785  Biso 1.000000     C
    C   1.0     0.199187     0.531072     0.199375  Biso 1.000000     C
    C   1.0     0.200244     0.071776     0.199868  Biso 1.000000     C
    C   1.0     0.529670     0.199808     0.070795  Biso 1.000000     C
    C   1.0     0.071340     0.200165     0.528690  Biso 1.000000     C
    C   1.0     0.199216     0.531436     0.069986  Biso 1.000000     C
    C   1.0     0.200109     0.071170     0.529072  Biso 1.000000     C
    C   1.0     0.071466     0.200754     0.200072  Biso 1.000000     C
    C   1.0     0.529487     0.199947     0.200011  Biso 1.000000     C
    C   1.0     0.475255     0.930766     0.930435  Biso 1.000000     C
    C   1.0     0.469906     0.886548     0.886281  Biso 1.000000     C
    C   1.0     0.930896     0.474687     0.663659  Biso 1.000000     C
    C   1.0     0.886946     0.468727     0.757562  Biso 1.000000     C
    C   1.0     0.929343     0.662880     0.477209  Biso 1.000000     C
    C   1.0     0.885297     0.756479     0.471745  Biso 1.000000     C
    C   1.0     0.662918     0.929392     0.930449  Biso 1.000000     C
    C   1.0     0.756409     0.885139     0.886188  Biso 1.000000     C
    C   1.0     0.475530     0.930517     0.663365  Biso 1.000000     C
    C   1.0     0.470066     0.886395     0.757049  Biso 1.000000     C
    C   1.0     0.929407     0.662657     0.930024  Biso 1.000000     C
    C   1.0     0.885278     0.756115     0.885930  Biso 1.000000     C
    C   1.0     0.931228     0.474129     0.930867  Biso 1.000000     C
    C   1.0     0.887139     0.468399     0.886879  Biso 1.000000     C
    C   1.0     0.662998     0.929786     0.476580  Biso 1.000000     C
    C   1.0     0.756535     0.885610     0.471328  Biso 1.000000     C
    C   1.0     0.476675     0.663129     0.929963  Biso 1.000000     C
    C   1.0     0.470768     0.756954     0.885993  Biso 1.000000     C
    C   1.0     0.930171     0.930193     0.476114  Biso 1.000000     C
    C   1.0     0.885849     0.885894     0.471004  Biso 1.000000     C
    C   1.0     0.930077     0.929751     0.663158  Biso 1.000000     C
    C   1.0     0.885727     0.885401     0.756808  Biso 1.000000     C
    C   1.0     0.663486     0.475415     0.930720  Biso 1.000000     C
    C   1.0     0.757491     0.469144     0.886822  Biso 1.000000     C
    C   1.0     0.068900     0.525932     0.068895  Biso 1.000000     C
    C   1.0     0.112914     0.531669     0.112953  Biso 1.000000     C
    C   1.0     0.524416     0.069529     0.336614  Biso 1.000000     C
    C   1.0     0.529908     0.113645     0.242923  Biso 1.000000     C
    C   1.0     0.336916     0.070289     0.523431  Biso 1.000000     C
    C   1.0     0.243402     0.114458     0.528603  Biso 1.000000     C
    C   1.0     0.070632     0.337419     0.069807  Biso 1.000000     C
    C   1.0     0.114743     0.243969     0.113949  Biso 1.000000     C
    C   1.0     0.068868     0.525302     0.336317  Biso 1.000000     C
    C   1.0     0.112889     0.531292     0.242402  Biso 1.000000     C
    C   1.0     0.337076     0.070635     0.069519  Biso 1.000000     C
    C   1.0     0.243591     0.114918     0.113759  Biso 1.000000     C
    C   1.0     0.524723     0.069310     0.069513  Biso 1.000000     C
    C   1.0     0.530081     0.113514     0.113678  Biso 1.000000     C
    C   1.0     0.070462     0.337109     0.522793  Biso 1.000000     C
    C   1.0     0.114569     0.243526     0.528203  Biso 1.000000     C
    C   1.0     0.336452     0.524639     0.069406  Biso 1.000000     C
    C   1.0     0.242442     0.530926     0.113241  Biso 1.000000     C
    C   1.0     0.069861     0.069738     0.523793  Biso 1.000000     C
    C   1.0     0.114158     0.114069     0.528889  Biso 1.000000     C
    C   1.0     0.069847     0.070322     0.336720  Biso 1.000000     C
    C   1.0     0.114227     0.114701     0.243093  Biso 1.000000     C
    C   1.0     0.523246     0.336932     0.070066  Biso 1.000000     C
    C   1.0     0.529195     0.243097     0.114003  Biso 1.000000     C
    O   1.0     0.478845     0.008105     0.886245  Biso 1.000000     O
    O   1.0     0.008236     0.478434     0.626815  Biso 1.000000     O
    O   1.0     0.885330     0.626061     0.480490  Biso 1.000000     O
    O   1.0     0.626110     0.885538     0.008073  Biso 1.000000     O
    O   1.0     0.478443     0.886504     0.626869  Biso 1.000000     O
    O   1.0     0.006894     0.626452     0.885782  Biso 1.000000     O
    O   1.0     0.887018     0.477465     0.008326  Biso 1.000000     O
    O   1.0     0.626825     0.007250     0.479509  Biso 1.000000     O
    O   1.0     0.479816     0.626692     0.007412  Biso 1.000000     O
    O   1.0     0.007646     0.886382     0.478936  Biso 1.000000     O
    O   1.0     0.886237     0.007207     0.626802  Biso 1.000000     O
    O   1.0     0.626902     0.478771     0.886566  Biso 1.000000     O
    O   1.0     0.991562     0.522174     0.113229  Biso 1.000000     O
    O   1.0     0.520983     0.992126     0.373208  Biso 1.000000     O
    O   1.0     0.373672     0.114269     0.520300  Biso 1.000000     O
    O   1.0     0.114731     0.374066     0.992226  Biso 1.000000     O
    O   1.0     0.112949     0.522230     0.372796  Biso 1.000000     O
    O   1.0     0.373151     0.993170     0.113631  Biso 1.000000     O
    O   1.0     0.521877     0.113266     0.991957  Biso 1.000000     O
    O   1.0     0.993003     0.373247     0.519907  Biso 1.000000     O
    O   1.0     0.373192     0.521094     0.992027  Biso 1.000000     O
    O   1.0     0.113758     0.992346     0.520689  Biso 1.000000     O
    O   1.0     0.992340     0.114085     0.373347  Biso 1.000000     O
    O   1.0     0.519963     0.373590     0.114150  Biso 1.000000     O
    O   1.0     0.521239     0.991930     0.113651  Biso 1.000000     O
    O   1.0     0.991529     0.521555     0.373126  Biso 1.000000     O
    O   1.0     0.114461     0.373948     0.519500  Biso 1.000000     O
    O   1.0     0.373875     0.114451     0.991867  Biso 1.000000     O
    O   1.0     0.521573     0.113509     0.373101  Biso 1.000000     O
    O   1.0     0.993001     0.373543     0.113880  Biso 1.000000     O
    O   1.0     0.112964     0.523033     0.991275  Biso 1.000000     O
    O   1.0     0.373097     0.992804     0.520554  Biso 1.000000     O
    O   1.0     0.520171     0.373364     0.992593  Biso 1.000000     O
    O   1.0     0.992384     0.113541     0.520974  Biso 1.000000     O
    O   1.0     0.113680     0.992857     0.373069  Biso 1.000000     O
    O   1.0     0.373004     0.521325     0.113563  Biso 1.000000     O
    O   1.0     0.008707     0.477500     0.886658  Biso 1.000000     O
    O   1.0     0.478854     0.007961     0.626802  Biso 1.000000     O
    O   1.0     0.626255     0.885870     0.479587  Biso 1.000000     O
    O   1.0     0.885491     0.626090     0.007757  Biso 1.000000     O
    O   1.0     0.886774     0.477766     0.627218  Biso 1.000000     O
    O   1.0     0.626850     0.006894     0.886389  Biso 1.000000     O
    O   1.0     0.478029     0.886840     0.008018  Biso 1.000000     O
    O   1.0     0.006805     0.626720     0.480084  Biso 1.000000     O
    O   1.0     0.626776     0.478938     0.008104  Biso 1.000000     O
    O   1.0     0.886326     0.007621     0.479126  Biso 1.000000     O
    O   1.0     0.007611     0.886010     0.626552  Biso 1.000000     O
    O   1.0     0.479946     0.626467     0.885892  Biso 1.000000     O
   Cu   1.0     0.500404     0.065341     0.934417  Biso 1.000000    Cu
   Cu   1.0     0.065258     0.500373     0.499787  Biso 1.000000    Cu
   Cu   1.0     0.934482     0.499616     0.500194  Biso 1.000000    Cu
   Cu   1.0     0.499588     0.934708     0.065541  Biso 1.000000    Cu
   Cu   1.0     0.499650     0.934677     0.500048  Biso 1.000000    Cu
   Cu   1.0     0.065493     0.500289     0.934293  Biso 1.000000    Cu
   Cu   1.0     0.934629     0.499787     0.065461  Biso 1.000000    Cu
   Cu   1.0     0.500271     0.065405     0.499943  Biso 1.000000    Cu
   Cu   1.0     0.499880     0.500148     0.065489  Biso 1.000000    Cu
   Cu   1.0     0.065337     0.934745     0.499794  Biso 1.000000    Cu
   Cu   1.0     0.934658     0.065253     0.500086  Biso 1.000000    Cu
   Cu   1.0     0.500061     0.499908     0.934607  Biso 1.000000    Cu
