#======================================================================

# CRYSTAL DATA

#----------------------------------------------------------------------

data_VESTA_phase_1


_pd_phase_name                         MOF
_cell_length_a                         15.20600
_cell_length_b                         15.60900
_cell_length_c                         19.91800
_cell_angle_alpha                      102.23600
_cell_angle_beta                       90.26400
_cell_angle_gamma                      89.85400
_symmetry_space_group_name_H-M         "P 1"
_symmetry_Int_Tables_number            1

loop_
_symmetry_equiv_pos_as_xyz
   "x, y, z"

loop_
   _atom_site_label
   _atom_site_occupancy
   _atom_site_fract_x
   _atom_site_fract_y
   _atom_site_fract_z
   _atom_site_adp_type
   _atom_site_B_iso_or_equiv
   _atom_site_type_symbol
    H   1.0     0.731505     0.935354     0.289733  Biso 1.000000     H
    H   1.0     0.439586     0.429800     0.565280  Biso 1.000000     H
    H   1.0     0.937048     0.471912     0.064835  Biso 1.000000     H
    H   1.0     0.336450     0.389242     0.480581  Biso 1.000000     H
    H   1.0     0.767097     0.436374     0.789520  Biso 1.000000     H
    H   1.0     0.503877     0.922064     0.758131  Biso 1.000000     H
    H   1.0     0.604698     0.071634     0.487403  Biso 1.000000     H
    H   1.0     0.776211     0.655583     0.962316  Biso 1.000000     H
    H   1.0     0.700881     0.531817     0.718232  Biso 1.000000     H
    H   1.0     0.775481     0.870650     0.375731  Biso 1.000000     H
    H   1.0     0.061198     0.927844     0.065569  Biso 1.000000     H
    H   1.0     0.895690     0.571373    -0.012290  Biso 1.000000     H
    H   1.0     0.165461     0.888693    -0.017790  Biso 1.000000     H
    H   1.0     0.206358     0.215619     0.324902  Biso 1.000000     H
    H   1.0     0.767528     0.272669    -0.048566  Biso 1.000000     H
    H   1.0     0.396220     0.672880     0.728274  Biso 1.000000     H
    H   1.0     0.796983     0.030427     0.218420  Biso 1.000000     H
    H   1.0     0.102302     0.169734     0.228391  Biso 1.000000     H
    H   1.0     0.786005     0.250467     0.388593  Biso 1.000000     H
    H   1.0     0.097209     0.477000     0.353568  Biso 1.000000     H
    H   1.0     0.724949     0.154430     0.462648  Biso 1.000000     H
    H   1.0     0.259930     0.323181     0.409833  Biso 1.000000     H
    H   1.0     0.714367     0.751901     0.888255  Biso 1.000000     H
    H   1.0     0.198454     0.128950     0.988169  Biso 1.000000     H
    H   1.0     0.099939     0.238523     0.061489  Biso 1.000000     H
    H   1.0     0.294439     0.717566     0.825798  Biso 1.000000     H
    H   1.0    -0.031064     0.046047     0.135863  Biso 1.000000     H
    H   1.0    -0.005498     0.419071     0.256432  Biso 1.000000     H
    H   1.0     0.396358     0.739872     0.560396  Biso 1.000000     H
    H   1.0     0.402950     0.978937     0.856089  Biso 1.000000     H
    H   1.0     0.242548     0.823757     0.911757  Biso 1.000000     H
    H   1.0     0.562692     0.972668     0.564374  Biso 1.000000     H
    H   1.0     0.730486     0.771522     0.451765  Biso 1.000000     H
    H   1.0     0.723281     0.372277     0.875207  Biso 1.000000     H
    H   1.0     0.529455     0.549270     0.636835  Biso 1.000000     H
    H   1.0     0.299903     0.629038     0.485922  Biso 1.000000     H
    H   1.0     0.603653     0.260145     0.439585  Biso 1.000000     H
    H   1.0     0.902782     0.522993     0.646420  Biso 1.000000     H
    H   1.0     0.437319     0.027354     0.435635  Biso 1.000000     H
    H   1.0     0.000000     0.953966     0.864116  Biso 1.000000     H
    H   1.0     0.705607     0.282420     0.174219  Biso 1.000000     H
    H   1.0     0.232485     0.727317     0.000000  Biso 1.000000     H
    H   1.0     0.834556     0.111292     0.000000  Biso 1.000000     H
    H   1.0     0.603786     0.327126     0.271724  Biso 1.000000     H
    H   1.0     0.269498     0.228476     0.548245  Biso 1.000000     H
    H   1.0     0.560399     0.570220     0.434721  Biso 1.000000     H
    H   1.0     0.214155     0.749448     0.611329  Biso 1.000000     H
    H   1.0     0.223797     0.344408     0.037676  Biso 1.000000     H
    H   1.0     0.900098     0.761467     0.938487  Biso 1.000000     H
    H   1.0     0.700108     0.370980     0.514058  Biso 1.000000     H
    H   1.0     0.276730     0.627705     0.124792  Biso 1.000000     H
    H   1.0     0.224495     0.129327     0.624262  Biso 1.000000     H
    H   1.0     0.897760     0.830261     0.771594  Biso 1.000000     H
    H   1.0     0.496119     0.077948     0.241865  Biso 1.000000     H
    H   1.0     0.232887     0.563610     0.210477  Biso 1.000000     H
    H   1.0     0.275054     0.845578     0.537278  Biso 1.000000     H
    H   1.0     0.299113     0.468170     0.281763  Biso 1.000000     H
    H   1.0     0.000000     0.580907     0.743527  Biso 1.000000     H
    H   1.0     0.938814     0.072151     0.934420  Biso 1.000000     H
    H   1.0     0.793650     0.784385     0.675124  Biso 1.000000     H
    H   1.0     0.663544     0.610778     0.519421  Biso 1.000000     H
    H   1.0     0.203059     0.969415     0.781546  Biso 1.000000     H
    H   1.0     0.597061     0.021062     0.143922  Biso 1.000000     H
    H   1.0     0.757484     0.176225     0.088251  Biso 1.000000     H
    H   1.0     0.395305     0.928372     0.512590  Biso 1.000000     H
    H   1.0     0.062965     0.528076     0.935161  Biso 1.000000     H
    H   1.0     0.740054     0.676836     0.590186  Biso 1.000000     H
    H   1.0     0.104319     0.428612     0.000000  Biso 1.000000     H
    H   1.0     0.268424     0.064581     0.710252  Biso 1.000000     H
    H   1.0     0.470532     0.450750     0.363166  Biso 1.000000     H
    H   1.0     0.285646     0.248089     0.111735  Biso 1.000000     H
    H   1.0     0.801584     0.871026     0.011816  Biso 1.000000     H
    C   1.0     0.658008     0.705199     0.757568  Biso 1.000000     C
    C   1.0     0.137668     0.018746     0.020425  Biso 1.000000     C
    C   1.0     0.072110    -0.003759     0.063552  Biso 1.000000     C
    C   1.0     0.717777     0.558689     0.771707  Biso 1.000000     C
    C   1.0     0.805856     0.479459     0.925860  Biso 1.000000     C
    C   1.0     0.340715     0.764828     0.813168  Biso 1.000000     C
    C   1.0     0.795484     0.338174    -0.041349  Biso 1.000000     C
    C   1.0     0.780801     0.057372     0.271925  Biso 1.000000     C
    C   1.0     0.703097     0.837356     0.458850  Biso 1.000000     C
    C   1.0     0.159865     0.350635     0.348088  Biso 1.000000     C
    C   1.0     0.771548     0.393917     0.915844  Biso 1.000000     C
    C   1.0     0.148281     0.108312     0.019955  Biso 1.000000     C
    C   1.0     0.854693     0.365910     0.013116  Biso 1.000000     C
    C   1.0     0.773589     0.181155     0.367815  Biso 1.000000     C
    C   1.0     0.350123     0.609072     0.518406  Biso 1.000000     C
    C   1.0     0.397026     0.739779     0.758452  Biso 1.000000     C
    C   1.0     0.744617     0.004082     0.312322  Biso 1.000000     C
    C   1.0     0.253114     0.957897     0.934768  Biso 1.000000     C
    C   1.0     0.876247     0.305396     0.059653  Biso 1.000000     C
    C   1.0     0.609192     0.950808     0.522801  Biso 1.000000     C
    C   1.0     0.775472     0.538602     0.881580  Biso 1.000000     C
    C   1.0     0.727454     0.892836     0.416168  Biso 1.000000     C
    C   1.0     0.020620     0.061064     0.102401  Biso 1.000000     C
    C   1.0     0.621931     0.805482     0.559406  Biso 1.000000     C
    C   1.0     0.099286     0.408503     0.327552  Biso 1.000000     C
    C   1.0     0.702310     0.647781     0.799170  Biso 1.000000     C
    C   1.0     0.427643     0.498051     0.563087  Biso 1.000000     C
    C   1.0     0.633596     0.006295     0.479830  Biso 1.000000     C
    C   1.0     0.840272     0.203637     0.257695  Biso 1.000000     C
    C   1.0     0.043021     0.376466     0.273152  Biso 1.000000     C
    C   1.0     0.159564     0.262677     0.312111  Biso 1.000000     C
    C   1.0     0.340765     0.852445     0.849852  Biso 1.000000     C
    C   1.0     0.246901     0.457233     0.432957  Biso 1.000000     C
    C   1.0     0.403814     0.670217     0.559698  Biso 1.000000     C
    C   1.0     0.726416     0.682493     0.867518  Biso 1.000000     C
    C   1.0     0.093436     0.168744     0.060568  Biso 1.000000     C
    C   1.0     0.738389     0.127503     0.408509  Biso 1.000000     C
    C   1.0     0.754396     0.505212     0.812085  Biso 1.000000     C
    C   1.0     0.866341     0.506326    -0.020045  Biso 1.000000     C
    C   1.0     0.362032     0.519671     0.519094  Biso 1.000000     C
    C   1.0     0.455837     0.879231     0.774635  Biso 1.000000     C
    C   1.0     0.693793    -0.021267     0.426012  Biso 1.000000     C
    C   1.0     0.796685     0.146377     0.299400  Biso 1.000000     C
    C   1.0     0.644169     0.865780     0.513037  Biso 1.000000     C
    C   1.0     0.400563     0.910663     0.829512  Biso 1.000000     C
    C   1.0     0.890350     0.450548     0.023038  Biso 1.000000     C
    C   1.0     0.477831     0.563556     0.602632  Biso 1.000000     C
    C   1.0     0.102040     0.236983     0.257918  Biso 1.000000     C
    C   1.0     0.724309     0.037586     0.381815  Biso 1.000000     C
    C   1.0     0.762055     0.628665     0.908208  Biso 1.000000     C
    C   1.0     0.906596     0.831247     0.939409  Biso 1.000000     C
    C   1.0     0.297699     0.352213     0.200822  Biso 1.000000     C
    C   1.0     0.840141     0.649368     0.651910  Biso 1.000000     C
    C   1.0     0.522162     0.436463     0.397364  Biso 1.000000     C
    C   1.0     0.245614     0.494780     0.187905  Biso 1.000000     C
    C   1.0     0.979399     0.938934     0.897579  Biso 1.000000     C
    C   1.0     0.145337     0.634063     0.986871  Biso 1.000000     C
    C   1.0     0.224516     0.461380     0.118416  Biso 1.000000     C
    C   1.0     0.637967     0.480349     0.480897  Biso 1.000000     C
    C   1.0     0.603001     0.260218     0.241559  Biso 1.000000     C
    C   1.0     0.255353     0.995850     0.687647  Biso 1.000000     C
    C   1.0     0.390812     0.049205     0.477204  Biso 1.000000     C
    C   1.0     0.226522     0.818767     0.632112  Biso 1.000000     C
    C   1.0     0.306193     0.000000     0.573976  Biso 1.000000     C
    C   1.0     0.133674     0.493657     0.000000  Biso 1.000000     C
    C   1.0     0.898019     0.763015     0.742063  Biso 1.000000     C
    C   1.0     0.203463     0.853493     0.700541  Biso 1.000000     C
    C   1.0     0.572351     0.501969     0.436909  Biso 1.000000     C
    C   1.0     0.746914     0.042083     0.065238  Biso 1.000000     C
    C   1.0     0.160195     0.796054     0.742253  Biso 1.000000     C
    C   1.0     0.273588     0.317494     0.132477  Biso 1.000000     C
    C   1.0     0.862355     0.981243     0.979566  Biso 1.000000     C
    C   1.0     0.204521     0.661815     0.000000  Biso 1.000000     C
    C   1.0     0.840455     0.737324     0.687897  Biso 1.000000     C
    C   1.0     0.275675     0.962383     0.618151  Biso 1.000000     C
    C   1.0     0.927904     0.000000     0.936431  Biso 1.000000     C
    C   1.0     0.272528     0.107154     0.583827  Biso 1.000000     C
    C   1.0     0.296891     0.162643     0.541156  Biso 1.000000     C
    C   1.0     0.355821     0.134227     0.486968  Biso 1.000000     C
    C   1.0     0.957024     0.623523     0.726811  Biso 1.000000     C
    C   1.0     0.599456     0.089335     0.170499  Biso 1.000000     C
    C   1.0     0.282212     0.441300     0.228289  Biso 1.000000     C
    C   1.0     0.109653     0.549438     0.976964  Biso 1.000000     C
    C   1.0     0.237969     0.371324     0.091781  Biso 1.000000     C
    C   1.0     0.228468     0.606070     0.084149  Biso 1.000000     C
    C   1.0     0.851747     0.891673     0.980025  Biso 1.000000     C
    C   1.0     0.341975     0.294793     0.242434  Biso 1.000000     C
    C   1.0     0.649885     0.390946     0.481577  Biso 1.000000     C
    C   1.0     0.596193     0.329801     0.440286  Biso 1.000000     C
    C   1.0     0.366402     0.993708     0.520165  Biso 1.000000     C
    C   1.0     0.261628     0.872470     0.591425  Biso 1.000000     C
    C   1.0     0.659278     0.147541     0.150168  Biso 1.000000     C
    C   1.0     0.194153     0.520531     0.074138  Biso 1.000000     C
    C   1.0     0.378077     0.194543     0.440618  Biso 1.000000     C
    C   1.0     0.544174     0.120775     0.225370  Biso 1.000000     C
    C   1.0     0.900723     0.591492     0.672434  Biso 1.000000     C
    C   1.0     0.123677     0.694623     0.940398  Biso 1.000000     C
    C   1.0     0.753090     0.542781     0.567042  Biso 1.000000     C
    C   1.0     0.659335     0.235159     0.186857  Biso 1.000000     C
    C   1.0     0.219241     0.942508     0.728034  Biso 1.000000     C
    N   1.0     0.000000     0.147004     0.101186  Biso 1.000000     N
    N   1.0     0.043808     0.292342     0.237882  Biso 1.000000     N
    N   1.0     0.185493     0.951515     0.981000  Biso 1.000000     N
    N   1.0     0.454502     0.795477     0.738574  Biso 1.000000     N
    N   1.0     0.219841     0.373433     0.401225  Biso 1.000000     N
    N   1.0     0.315442     0.451788     0.479130  Biso 1.000000     N
    N   1.0     0.281768     0.874502     0.903398  Biso 1.000000     N
    N   1.0     0.467182     0.649383     0.601302  Biso 1.000000     N
    N   1.0     0.780145     0.626580     0.598787  Biso 1.000000     N
    N   1.0     0.532819     0.350635     0.398686  Biso 1.000000     N
    N   1.0    -0.029911     0.852991     0.898784  Biso 1.000000     N
    N   1.0     0.956272     0.707652     0.762075  Biso 1.000000     N
    N   1.0     0.545504     0.204532     0.261427  Biso 1.000000     N
    N   1.0     0.684556     0.548231     0.520865  Biso 1.000000     N
    N   1.0     0.718267     0.125480     0.096619  Biso 1.000000     N
    N   1.0     0.814526     0.048468     0.018997  Biso 1.000000     N
    O   1.0     0.655527     0.729353     0.547909  Biso 1.000000     O
    O   1.0     0.929168     0.333217     0.110337  Biso 1.000000     O
    O   1.0     0.215585     0.525914     0.422618  Biso 1.000000     O
    O   1.0     0.621938     0.663249     0.700025  Biso 1.000000     O
    O   1.0     0.875189     0.161447     0.199926  Biso 1.000000     O
    O   1.0     0.569512     0.834331     0.609934  Biso 1.000000     O
    O   1.0     0.655462     0.786347     0.777707  Biso 1.000000     O
    O   1.0     0.843427     0.284748     0.277860  Biso 1.000000     O
    O   1.0     0.841730     0.229728     0.048001  Biso 1.000000     O
    O   1.0     0.282398     0.027008     0.924113  Biso 1.000000     O
    O   1.0     0.430485     0.165695     0.390081  Biso 1.000000     O
    O   1.0     0.378057     0.336755     0.299969  Biso 1.000000     O
    O   1.0     0.124989     0.838126     0.799945  Biso 1.000000     O
    O   1.0     0.717627     0.972971     0.075889  Biso 1.000000     O
    O   1.0     0.070799     0.666765     0.889692  Biso 1.000000     O
    O   1.0     0.158259     0.770259     0.951997  Biso 1.000000     O
    O   1.0     0.344539     0.213646     0.222295  Biso 1.000000     O
    O   1.0     0.344456     0.270659     0.452107  Biso 1.000000     O
    O   1.0     0.157642     0.714930     0.722127  Biso 1.000000     O
    O   1.0     0.784409     0.474099     0.577375  Biso 1.000000     O
   Zn   1.0     0.544197     0.744414     0.664213  Biso 1.000000    Zn
   Zn   1.0     0.952649     0.241498     0.163920  Biso 1.000000    Zn
   Zn   1.0     0.455786     0.255596     0.335788  Biso 1.000000    Zn
   Zn   1.0     0.047365     0.758458     0.836097  Biso 1.000000    Zn
