#======================================================================

# CRYSTAL DATA

#----------------------------------------------------------------------

data_VESTA_phase_1


_pd_phase_name                         MOF
_cell_length_a                         12.10100
_cell_length_b                         18.21000
_cell_length_c                         18.21000
_cell_angle_alpha                      64.76000
_cell_angle_beta                       77.20300
_cell_angle_gamma                      102.79700
_symmetry_space_group_name_H-M         "P 1"
_symmetry_Int_Tables_number            1

loop_
_symmetry_equiv_pos_as_xyz
   "x, y, z"

loop_
   _atom_site_label
   _atom_site_occupancy
   _atom_site_fract_x
   _atom_site_fract_y
   _atom_site_fract_z
   _atom_site_adp_type
   _atom_site_B_iso_or_equiv
   _atom_site_type_symbol
    H   1.0     0.847602     0.720894     0.786473  Biso 1.000000     H
    H   1.0     0.741584     0.623283     0.521127  Biso 1.000000     H
    H   1.0     0.738817     0.922522     0.000000  Biso 1.000000     H
    H   1.0     0.040450     0.339403     0.050622  Biso 1.000000     H
    H   1.0     0.551411     0.396645     0.223419  Biso 1.000000     H
    H   1.0     0.221365     0.782765     0.142851  Biso 1.000000     H
    H   1.0     0.276545     0.880082     0.353251  Biso 1.000000     H
    H   1.0     0.456702     0.083891     0.784985  Biso 1.000000     H
    H   1.0     0.803925     0.888551     0.384097  Biso 1.000000     H
    H   1.0     0.752876     0.755730     0.331682  Biso 1.000000     H
    H   1.0     0.596957     0.776218     0.888506  Biso 1.000000     H
    H   1.0     0.945950     0.677570     0.077402  Biso 1.000000     H
    H   1.0     0.917797     0.842213     0.188016  Biso 1.000000     H
    H   1.0     0.176908     0.384644     0.750258  Biso 1.000000     H
    H   1.0     0.007018     0.078760     0.253986  Biso 1.000000     H
    H   1.0     0.920983     0.741889     0.893779  Biso 1.000000     H
    H   1.0     0.913659     0.847211     0.418410  Biso 1.000000     H
    H   1.0     0.066571     0.986153     0.844397  Biso 1.000000     H
    H   1.0     0.829597     0.348877     0.781785  Biso 1.000000     H
    H   1.0     0.182645     0.656465     0.231604  Biso 1.000000     H
    H   1.0     0.212891     0.121780     0.627623  Biso 1.000000     H
    H   1.0     0.071133     0.329579     0.932516  Biso 1.000000     H
    H   1.0     0.780262     0.621184     0.732925  Biso 1.000000     H
    H   1.0     0.546125     0.122207     0.659667  Biso 1.000000     H
    H   1.0     0.907813     0.135813     0.385042  Biso 1.000000     H
    H   1.0     0.248431     0.792559     0.620012  Biso 1.000000     H
    H   1.0     0.487606     0.642835     0.328377  Biso 1.000000     H
    H   1.0     0.129014     0.514348     0.731334  Biso 1.000000     H
    H   1.0     0.149825     0.388246     0.398329  Biso 1.000000     H
    H   1.0     0.924472     0.821190     0.019350  Biso 1.000000     H
    H   1.0     0.739772     0.127155     0.660761  Biso 1.000000     H
    H   1.0     0.419573     0.229000     0.123705  Biso 1.000000     H
    H   1.0     0.050995     0.748164     0.850839  Biso 1.000000     H
    H   1.0     0.323971     0.420591     0.752512  Biso 1.000000     H
    H   1.0     0.093167     0.049921     0.620853  Biso 1.000000     H
    H   1.0     0.821422     0.324199     0.042710  Biso 1.000000     H
    H   1.0     0.147693     0.965231     0.369665  Biso 1.000000     H
    H   1.0     0.980258     0.667503     0.959402  Biso 1.000000     H
    H   1.0     0.835923     0.624120     0.258262  Biso 1.000000     H
    H   1.0     0.894805     0.498142     0.285355  Biso 1.000000     H
    H   1.0     0.646551     0.865897     0.925520  Biso 1.000000     H
    H   1.0     0.828932     0.085612     0.928098  Biso 1.000000     H
    H   1.0     0.516351     0.277380     0.347759  Biso 1.000000     H
    H   1.0     0.231781     0.383896     0.280361  Biso 1.000000     H
    H   1.0     0.948251     0.021358     0.167890  Biso 1.000000     H
    H   1.0     0.710637     0.617457     0.337761  Biso 1.000000     H
    H   1.0     0.087021     0.260351     0.123177  Biso 1.000000     H
    H   1.0     0.097779     0.165233     0.823393  Biso 1.000000     H
    H   1.0     0.394447     0.224438     0.500713  Biso 1.000000     H
    H   1.0     0.468500     0.603909     0.793399  Biso 1.000000     H
    H   1.0     0.959448     0.262262     0.157475  Biso 1.000000     H
    H   1.0     0.282709     0.002497     0.922035  Biso 1.000000     H
    H   1.0     0.276882     0.381788     0.489438  Biso 1.000000     H
    H   1.0     0.408900     0.783771     0.879924  Biso 1.000000     H
    H   1.0     0.263165     0.252188     0.679983  Biso 1.000000     H
    H   1.0     0.100190     0.157077     0.591085  Biso 1.000000     H
    H   1.0     0.791277     0.222440     0.871740  Biso 1.000000     H
    H   1.0     0.249896     0.513064     0.877618  Biso 1.000000     H
    H   1.0     0.769286     0.488780     0.137381  Biso 1.000000     H
    H   1.0     0.093593     0.186438     0.989992  Biso 1.000000     H
    H   1.0     0.732411     0.000000     0.089202  Biso 1.000000     H
    H   1.0     0.275268     0.083026     0.006185  Biso 1.000000     H
    H   1.0     0.866678     0.040960     0.644070  Biso 1.000000     H
    H   1.0     0.375689     0.659396     0.226902  Biso 1.000000     H
    H   1.0     0.113651     0.876484     0.626816  Biso 1.000000     H
    H   1.0     0.164831     0.284464     0.226489  Biso 1.000000     H
    H   1.0     0.685377     0.584968     0.262605  Biso 1.000000     H
    H   1.0     0.559278     0.923985     0.226787  Biso 1.000000     H
    H   1.0     0.632646     0.347639     0.788568  Biso 1.000000     H
    H   1.0     0.184655     0.920026     0.085867  Biso 1.000000     H
    H   1.0     0.159092     0.666730     0.630857  Biso 1.000000     H
    H   1.0     0.867331     0.616097     0.613468  Biso 1.000000     H
    H   1.0     0.506720     0.718829     0.667139  Biso 1.000000     H
    H   1.0     0.865740     0.346020     0.386692  Biso 1.000000     H
    H   1.0     0.306364     0.392383     0.673128  Biso 1.000000     H
    H   1.0     0.368447     0.140288     0.086365  Biso 1.000000     H
    H   1.0     0.608176     0.221865     0.128900  Biso 1.000000     H
    H   1.0     0.472090     0.887036     0.352407  Biso 1.000000     H
    H   1.0     0.521977     0.364723     0.685916  Biso 1.000000     H
    H   1.0     0.195079     0.681807     0.965828  Biso 1.000000     H
    H   1.0     0.629467     0.772153     0.514497  Biso 1.000000     H
    H   1.0     0.775755     0.221578     0.391759  Biso 1.000000     H
    H   1.0     0.000000     0.928476     0.758236  Biso 1.000000     H
    H   1.0     0.927784     0.954792     0.393037  Biso 1.000000     H
    C   1.0     0.148713     0.474125     0.214989  Biso 1.000000     C
    C   1.0     0.156101     0.117183     0.589294  Biso 1.000000     C
    C   1.0     0.960742     0.436869     0.888656  Biso 1.000000     C
    C   1.0     0.480100     0.227793     0.633377  Biso 1.000000     C
    C   1.0     0.796426     0.924020     0.950082  Biso 1.000000     C
    C   1.0     0.367581     0.212925     0.322458  Biso 1.000000     C
    C   1.0     0.269815     0.115619     0.107224  Biso 1.000000     C
    C   1.0     0.813839     0.457941     0.343952  Biso 1.000000     C
    C   1.0     0.773561     0.851114     0.648441  Biso 1.000000     C
    C   1.0     0.666230     0.231204     0.538657  Biso 1.000000     C
    C   1.0     0.378926     0.104730     0.788940  Biso 1.000000     C
    C   1.0     0.180747     0.122167     0.318174  Biso 1.000000     C
    C   1.0     0.022606     0.196841     0.963387  Biso 1.000000     C
    C   1.0     0.744186     0.809972     0.279659  Biso 1.000000     C
    C   1.0     0.819039     0.890854     0.832206  Biso 1.000000     C
    C   1.0     0.977996     0.702648     0.893963  Biso 1.000000     C
    C   1.0     0.431335     0.240101     0.233096  Biso 1.000000     C
    C   1.0     0.328649     0.690130     0.537536  Biso 1.000000     C
    C   1.0     0.272636     0.423183     0.708995  Biso 1.000000     C
    C   1.0     0.218026     0.082067     0.062350  Biso 1.000000     C
    C   1.0     0.421025     0.236352     0.374523  Biso 1.000000     C
    C   1.0     0.069794     0.080594     0.199937  Biso 1.000000     C
    C   1.0     0.636910     0.902999     0.222675  Biso 1.000000     C
    C   1.0     0.411186     0.625362     0.828838  Biso 1.000000     C
    C   1.0     0.459792     0.703635     0.828141  Biso 1.000000     C
    C   1.0     0.179225     0.149220     0.812410  Biso 1.000000     C
    C   1.0     0.919391     0.374734     0.862494  Biso 1.000000     C
    C   1.0     0.226702     0.828130     0.563101  Biso 1.000000     C
    C   1.0     0.271707     0.197775     0.731910  Biso 1.000000     C
    C   1.0     0.787186     0.854700     0.515860  Biso 1.000000     C
    C   1.0     0.258824     0.667357     0.926225  Biso 1.000000     C
    C   1.0     0.928368     0.514235     0.857089  Biso 1.000000     C
    C   1.0     0.744984     0.182745     0.527630  Biso 1.000000     C
    C   1.0     0.564759     0.190149     0.614032  Biso 1.000000     C
    C   1.0     0.938723     0.291958     0.895852  Biso 1.000000     C
    C   1.0     0.499074     0.315565     0.570710  Biso 1.000000     C
    C   1.0     0.274941     0.827730     0.485380  Biso 1.000000     C
    C   1.0     0.767690     0.857293     0.782417  Biso 1.000000     C
    C   1.0     0.171955     0.925722     0.423683  Biso 1.000000     C
    C   1.0     0.733439     0.948060     0.144161  Biso 1.000000     C
    C   1.0     0.378307     0.177732     0.716443  Biso 1.000000     C
    C   1.0     0.844440     0.082110     0.589683  Biso 1.000000     C
    C   1.0     0.157819     0.611389     0.208285  Biso 1.000000     C
    C   1.0     0.607976     0.376584     0.185831  Biso 1.000000     C
    C   1.0     0.934888     0.642228     0.861911  Biso 1.000000     C
    C   1.0     0.691017     0.320230     0.476017  Biso 1.000000     C
    C   1.0     0.651623     0.789774     0.690730  Biso 1.000000     C
    C   1.0     0.587087     0.763249     0.779722  Biso 1.000000     C
    C   1.0     0.639001     0.281391     0.131450  Biso 1.000000     C
    C   1.0     0.741567     0.585263     0.302623  Biso 1.000000     C
    C   1.0     0.790028     0.558869     0.633508  Biso 1.000000     C
    C   1.0     0.248714     0.148664     0.229821  Biso 1.000000     C
    C   1.0     0.745154     0.890750     0.904856  Biso 1.000000     C
    C   1.0     0.836308     0.858170     0.199029  Biso 1.000000     C
    C   1.0     0.148268     0.786781     0.117279  Biso 1.000000     C
    C   1.0     0.095079     0.631337     0.149709  Biso 1.000000     C
    C   1.0     0.353369     0.778966     0.474517  Biso 1.000000     C
    C   1.0     0.668395     0.793325     0.553790  Biso 1.000000     C
    C   1.0     0.828558     0.469364     0.770563  Biso 1.000000     C
    C   1.0     0.244196     0.153945     0.364059  Biso 1.000000     C
    C   1.0     0.646347     0.798696     0.820521  Biso 1.000000     C
    C   1.0     0.729199     0.429200     0.136770  Biso 1.000000     C
    C   1.0     0.178445     0.398527     0.238674  Biso 1.000000     C
    C   1.0     0.251212     0.525160     0.302631  Biso 1.000000     C
    C   1.0     0.289553     0.573375     0.877092  Biso 1.000000     C
    C   1.0     0.772719     0.129694     0.598650  Biso 1.000000     C
    C   1.0     0.867343     0.135108     0.445321  Biso 1.000000     C
    C   1.0     0.864382     0.531466     0.797878  Biso 1.000000     C
    C   1.0     0.758424     0.337694     0.083828  Biso 1.000000     C
    C   1.0     0.353544     0.206184     0.460502  Biso 1.000000     C
    C   1.0     0.000000     0.729616     0.080010  Biso 1.000000     C
    C   1.0     0.294543     0.442486     0.430980  Biso 1.000000     C
    C   1.0     0.142248     0.342979     0.207966  Biso 1.000000     C
    C   1.0     0.232121     0.149303     0.496990  Biso 1.000000     C
    C   1.0     0.599076     0.418921     0.672432  Biso 1.000000     C
    C   1.0     0.035247     0.303591     0.118096  Biso 1.000000     C
    C   1.0     0.076037     0.714318     0.116440  Biso 1.000000     C
    C   1.0     0.870548     0.662543     0.804731  Biso 1.000000     C
    C   1.0     0.010234     0.277178     0.930935  Biso 1.000000     C
    C   1.0     0.207761     0.553494     0.671168  Biso 1.000000     C
    C   1.0     0.196563     0.115686     0.179910  Biso 1.000000     C
    C   1.0     0.865448     0.218922     0.896224  Biso 1.000000     C
    C   1.0     0.761184     0.480507     0.710787  Biso 1.000000     C
    C   1.0     0.835931     0.884136     0.694044  Biso 1.000000     C
    C   1.0     0.989387     0.958984     0.860417  Biso 1.000000     C
    C   1.0     0.378500     0.723319     0.878942  Biso 1.000000     C
    C   1.0     0.558587     0.299545     0.184550  Biso 1.000000     C
    C   1.0     0.225351     0.446306     0.378762  Biso 1.000000     C
    C   1.0     0.085790     0.491953     0.155013  Biso 1.000000     C
    C   1.0     0.370714     0.206140     0.191875  Biso 1.000000     C
    C   1.0     0.600529     0.762843     0.639667  Biso 1.000000     C
    C   1.0     0.078753     0.363639     0.150437  Biso 1.000000     C
    C   1.0     0.244858     0.878812     0.414813  Biso 1.000000     C
    C   1.0     0.834121     0.606928     0.774292  Biso 1.000000     C
    C   1.0     0.184242     0.536080     0.242731  Biso 1.000000     C
    C   1.0     0.884604     0.140845     0.929322  Biso 1.000000     C
    C   1.0     0.025514     0.047987     0.151965  Biso 1.000000     C
    C   1.0     0.861778     0.888864     0.422712  Biso 1.000000     C
    C   1.0     0.517428     0.693066     0.441316  Biso 1.000000     C
    C   1.0     0.054906     0.569861     0.122516  Biso 1.000000     C
    C   1.0     0.855267     0.394225     0.804673  Biso 1.000000     C
    C   1.0     0.225852     0.639212     0.615161  Biso 1.000000     C
    C   1.0     0.994193     0.810197     0.047186  Biso 1.000000     C
    C   1.0     0.281875     0.059142     0.867191  Biso 1.000000     C
    C   1.0     0.795130     0.184040     0.449220  Biso 1.000000     C
    C   1.0     0.453474     0.819200     0.398381  Biso 1.000000     C
    C   1.0     0.796418     0.372395     0.400449  Biso 1.000000     C
    C   1.0     0.727660     0.493830     0.363715  Biso 1.000000     C
    C   1.0     0.637910     0.830290     0.295215  Biso 1.000000     C
    C   1.0     0.945604     0.926380     0.812284  Biso 1.000000     C
    C   1.0     0.608362     0.361405     0.492920  Biso 1.000000     C
    C   1.0     0.408846     0.647826     0.519563  Biso 1.000000     C
    C   1.0     0.721511     0.563015     0.580759  Biso 1.000000     C
    C   1.0     0.348145     0.596825     0.285631  Biso 1.000000     C
    C   1.0     0.411932     0.587947     0.341493  Biso 1.000000     C
    C   1.0     0.129672     0.865104     0.083860  Biso 1.000000     C
    C   1.0     0.289810     0.515746     0.649028  Biso 1.000000     C
    C   1.0     0.536795     0.780847     0.378634  Biso 1.000000     C
    C   1.0     0.662014     0.409724     0.728929  Biso 1.000000     C
    C   1.0     0.153078     0.876176     0.566951  Biso 1.000000     C
    N   1.0     0.044276     0.879068     0.047683  Biso 1.000000     N
    N   1.0     0.917895     0.959350     0.929049  Biso 1.000000     N
    N   1.0     0.971650     0.127460     0.963951  Biso 1.000000     N
    N   1.0     0.386162     0.561838     0.574575  Biso 1.000000     N
    N   1.0     0.096451     0.046725     0.083804  Biso 1.000000     N
    N   1.0     0.627130     0.494480     0.598951  Biso 1.000000     N
    N   1.0     0.180874     0.122660     0.450172  Biso 1.000000     N
    N   1.0     0.125191     0.924691     0.498770  Biso 1.000000     N
    N   1.0     0.892278     0.084239     0.514128  Biso 1.000000     N
    N   1.0     0.387105     0.511790     0.413582  Biso 1.000000     N
    N   1.0     0.181453     0.080186     0.881240  Biso 1.000000     N
    N   1.0     0.836662     0.883347     0.562057  Biso 1.000000     N
    N   1.0     0.959966     0.569062     0.888469  Biso 1.000000     N
    N   1.0     0.213185     0.593032     0.925652  Biso 1.000000     N
    N   1.0     0.833591     0.926812     0.130021  Biso 1.000000     N
    N   1.0     0.054503     0.437258     0.123466  Biso 1.000000     N
    N   1.0     0.629865     0.447022     0.437323  Biso 1.000000     N
    N   1.0     0.804658     0.411094     0.085861  Biso 1.000000     N
    O   1.0     0.000000     0.583984     0.068526  Biso 1.000000     O
    O   1.0     0.424911     0.354477     0.583213  Biso 1.000000     O
    O   1.0     0.590765     0.653665     0.428872  Biso 1.000000     O
    O   1.0     0.001279     0.424111     0.940558  Biso 1.000000     O
    O   1.0     0.068369     0.069330     0.357419  Biso 1.000000     O
    O   1.0     0.947531     0.938088     0.654622  Biso 1.000000     O
   Cd   1.0    -0.002190     0.504607    -0.000353  Biso 1.000000    Cd
   Cd   1.0    -0.000735     0.000137    -0.000187  Biso 1.000000    Cd
   Cd   1.0    -0.000230    -0.000810     0.506027  Biso 1.000000    Cd
   Cd   1.0     0.506897     0.503879     0.505666  Biso 1.000000    Cd
