#======================================================================

# CRYSTAL DATA

#----------------------------------------------------------------------

data_VESTA_phase_1


_pd_phase_name                         MOF
_cell_length_a                         18.74000
_cell_length_b                         18.76600
_cell_length_c                         18.75900
_cell_angle_alpha                      60.03100
_cell_angle_beta                       60.04300
_cell_angle_gamma                      60.08500
_symmetry_space_group_name_H-M         "P 1"
_symmetry_Int_Tables_number            1

loop_
_symmetry_equiv_pos_as_xyz
   "x, y, z"

loop_
   _atom_site_label
   _atom_site_occupancy
   _atom_site_fract_x
   _atom_site_fract_y
   _atom_site_fract_z
   _atom_site_adp_type
   _atom_site_B_iso_or_equiv
   _atom_site_type_symbol
    H   1.0     0.472201     0.765931     0.995652  Biso 1.000000     H
    H   1.0     0.766255     0.471642     0.766017  Biso 1.000000     H
    H   1.0     0.995933     0.765857     0.471921  Biso 1.000000     H
    H   1.0     0.766353     0.995326     0.766291  Biso 1.000000     H
    H   1.0     0.471916     0.995468     0.766300  Biso 1.000000     H
    H   1.0     0.766198     0.765906     0.995781  Biso 1.000000     H
    H   1.0     0.996055     0.471634     0.766066  Biso 1.000000     H
    H   1.0     0.766171     0.765804     0.471852  Biso 1.000000     H
    H   1.0     0.472278     0.765910     0.766033  Biso 1.000000     H
    H   1.0     0.766599     0.995256     0.471545  Biso 1.000000     H
    H   1.0     0.995652     0.765875     0.766116  Biso 1.000000     H
    H   1.0     0.766477     0.471459     0.995587  Biso 1.000000     H
    H   1.0     0.233527     0.528517     0.004400  Biso 1.000000     H
    H   1.0     0.527740     0.234147     0.233921  Biso 1.000000     H
    H   1.0     0.233456     0.004725     0.528484  Biso 1.000000     H
    H   1.0     0.004373     0.234080     0.233898  Biso 1.000000     H
    H   1.0     0.003948     0.528408     0.233920  Biso 1.000000     H
    H   1.0     0.233829     0.234076     0.004233  Biso 1.000000     H
    H   1.0     0.528080     0.004542     0.233769  Biso 1.000000     H
    H   1.0     0.233801     0.234225     0.528165  Biso 1.000000     H
    H   1.0     0.233792     0.528331     0.233951  Biso 1.000000     H
    H   1.0     0.004106     0.234108     0.528027  Biso 1.000000     H
    H   1.0     0.233695     0.004651     0.233718  Biso 1.000000     H
    H   1.0     0.527903     0.233992     0.004327  Biso 1.000000     H
    C   1.0     0.476496     0.663081     0.930133  Biso 1.000000     C
    C   1.0     0.470957     0.756745     0.886069  Biso 1.000000     C
    C   1.0     0.663378     0.475856     0.930146  Biso 1.000000     C
    C   1.0     0.757168     0.470228     0.886064  Biso 1.000000     C
    C   1.0     0.930661     0.929970     0.475938  Biso 1.000000     C
    C   1.0     0.886530     0.885832     0.470402  Biso 1.000000     C
    C   1.0     0.930364     0.929995     0.663267  Biso 1.000000     C
    C   1.0     0.886250     0.885854     0.756985  Biso 1.000000     C
    C   1.0     0.476107     0.930135     0.930411  Biso 1.000000     C
    C   1.0     0.470733     0.885967     0.886240  Biso 1.000000     C
    C   1.0     0.663367     0.930054     0.930455  Biso 1.000000     C
    C   1.0     0.757051     0.885885     0.886298  Biso 1.000000     C
    C   1.0     0.930439     0.475927     0.663195  Biso 1.000000     C
    C   1.0     0.886400     0.470296     0.756891  Biso 1.000000     C
    C   1.0     0.930287     0.663063     0.476181  Biso 1.000000     C
    C   1.0     0.886273     0.756691     0.470579  Biso 1.000000     C
    C   1.0     0.476319     0.930074     0.663238  Biso 1.000000     C
    C   1.0     0.470837     0.885935     0.756941  Biso 1.000000     C
    C   1.0     0.663389     0.929930     0.475943  Biso 1.000000     C
    C   1.0     0.757152     0.885801     0.470402  Biso 1.000000     C
    C   1.0     0.930216     0.663071     0.930256  Biso 1.000000     C
    C   1.0     0.886147     0.756706     0.886171  Biso 1.000000     C
    C   1.0     0.930623     0.475784     0.930205  Biso 1.000000     C
    C   1.0     0.886521     0.470213     0.886090  Biso 1.000000     C
    C   1.0     0.336646     0.524124     0.069818  Biso 1.000000     C
    C   1.0     0.242857     0.529750     0.113911  Biso 1.000000     C
    C   1.0     0.523554     0.336909     0.069815  Biso 1.000000     C
    C   1.0     0.529095     0.243246     0.113899  Biso 1.000000     C
    C   1.0     0.069400     0.069979     0.524064  Biso 1.000000     C
    C   1.0     0.113520     0.114139     0.529585  Biso 1.000000     C
    C   1.0     0.069681     0.069962     0.336738  Biso 1.000000     C
    C   1.0     0.113790     0.114113     0.243025  Biso 1.000000     C
    C   1.0     0.069376     0.524204     0.069801  Biso 1.000000     C
    C   1.0     0.113479     0.529801     0.113896  Biso 1.000000     C
    C   1.0     0.069801     0.336899     0.069754  Biso 1.000000     C
    C   1.0     0.113874     0.243262     0.113838  Biso 1.000000     C
    C   1.0     0.523697     0.069980     0.336771  Biso 1.000000     C
    C   1.0     0.529182     0.114096     0.243067  Biso 1.000000     C
    C   1.0     0.336622     0.070101     0.524078  Biso 1.000000     C
    C   1.0     0.242863     0.114212     0.529610  Biso 1.000000     C
    C   1.0     0.069593     0.524075     0.336784  Biso 1.000000     C
    C   1.0     0.113630     0.529701     0.243088  Biso 1.000000     C
    C   1.0     0.069703     0.336935     0.523799  Biso 1.000000     C
    C   1.0     0.113725     0.243303     0.529415  Biso 1.000000     C
    C   1.0     0.336670     0.069926     0.069556  Biso 1.000000     C
    C   1.0     0.242987     0.114097     0.113713  Biso 1.000000     C
    C   1.0     0.523944     0.069809     0.069632  Biso 1.000000     C
    C   1.0     0.529319     0.113995     0.113785  Biso 1.000000     C
    C   1.0     0.470753     0.799872     0.929226  Biso 1.000000     C
    C   1.0     0.800243     0.470187     0.799975  Biso 1.000000     C
    C   1.0     0.929491     0.799787     0.470429  Biso 1.000000     C
    C   1.0     0.800210     0.928909     0.800181  Biso 1.000000     C
    C   1.0     0.470603     0.929021     0.800159  Biso 1.000000     C
    C   1.0     0.800111     0.799825     0.929319  Biso 1.000000     C
    C   1.0     0.929575     0.470173     0.800003  Biso 1.000000     C
    C   1.0     0.800165     0.799758     0.470402  Biso 1.000000     C
    C   1.0     0.470812     0.799852     0.799994  Biso 1.000000     C
    C   1.0     0.800426     0.928850     0.470235  Biso 1.000000     C
    C   1.0     0.929250     0.799802     0.800066  Biso 1.000000     C
    C   1.0     0.800377     0.470084     0.929150  Biso 1.000000     C
    C   1.0     0.199633     0.529902     0.070834  Biso 1.000000     C
    C   1.0     0.529211     0.200177     0.199985  Biso 1.000000     C
    C   1.0     0.199612     0.071135     0.529781  Biso 1.000000     C
    C   1.0     0.070781     0.200163     0.199948  Biso 1.000000     C
    C   1.0     0.070435     0.529849     0.199980  Biso 1.000000     C
    C   1.0     0.199920     0.200155     0.070696  Biso 1.000000     C
    C   1.0     0.529406     0.070984     0.199880  Biso 1.000000     C
    C   1.0     0.199830     0.200256     0.529604  Biso 1.000000     C
    C   1.0     0.199789     0.529803     0.199996  Biso 1.000000     C
    C   1.0     0.070541     0.200191     0.529541  Biso 1.000000     C
    C   1.0     0.199834     0.071067     0.199829  Biso 1.000000     C
    C   1.0     0.529313     0.200087     0.070766  Biso 1.000000     C
    O   1.0     0.479671     0.626577     0.007582  Biso 1.000000     O
    O   1.0     0.626694     0.479078     0.886106  Biso 1.000000     O
    O   1.0     0.008164     0.886068     0.479054  Biso 1.000000     O
    O   1.0     0.886308     0.007386     0.626766  Biso 1.000000     O
    O   1.0     0.479200     0.007584     0.886379  Biso 1.000000     O
    O   1.0     0.626746     0.886127     0.007974  Biso 1.000000     O
    O   1.0     0.007929     0.479176     0.626663  Biso 1.000000     O
    O   1.0     0.886151     0.626507     0.479338  Biso 1.000000     O
    O   1.0     0.479229     0.886161     0.626680  Biso 1.000000     O
    O   1.0     0.627037     0.007313     0.479076  Biso 1.000000     O
    O   1.0     0.007708     0.626630     0.886213  Biso 1.000000     O
    O   1.0     0.886487     0.478917     0.007653  Biso 1.000000     O
    O   1.0     0.373108     0.520932     0.992389  Biso 1.000000     O
    O   1.0     0.520537     0.373427     0.113833  Biso 1.000000     O
    O   1.0     0.113478     0.992587     0.520960  Biso 1.000000     O
    O   1.0     0.992167     0.113851     0.373300  Biso 1.000000     O
    O   1.0     0.991895     0.520946     0.113862  Biso 1.000000     O
    O   1.0     0.113906     0.373442     0.992300  Biso 1.000000     O
    O   1.0     0.520457     0.992584     0.373275  Biso 1.000000     O
    O   1.0     0.373378     0.114032     0.520929  Biso 1.000000     O
    O   1.0     0.113739     0.520930     0.373316  Biso 1.000000     O
    O   1.0     0.992214     0.373377     0.520638  Biso 1.000000     O
    O   1.0     0.373124     0.992494     0.113599  Biso 1.000000     O
    O   1.0     0.520966     0.113735     0.992110  Biso 1.000000     O
    O   1.0     0.520393     0.373399     0.992362  Biso 1.000000     O
    O   1.0     0.373328     0.520944     0.113834  Biso 1.000000     O
    O   1.0     0.991914     0.113892     0.520904  Biso 1.000000     O
    O   1.0     0.113758     0.992589     0.373256  Biso 1.000000     O
    O   1.0     0.520811     0.992375     0.113683  Biso 1.000000     O
    O   1.0     0.373298     0.113861     0.992046  Biso 1.000000     O
    O   1.0     0.992086     0.520874     0.373305  Biso 1.000000     O
    O   1.0     0.113824     0.373487     0.520674  Biso 1.000000     O
    O   1.0     0.520765     0.113908     0.373326  Biso 1.000000     O
    O   1.0     0.372988     0.992718     0.520940  Biso 1.000000     O
    O   1.0     0.992295     0.373333     0.113786  Biso 1.000000     O
    O   1.0     0.113498     0.521101     0.992344  Biso 1.000000     O
    O   1.0     0.626924     0.479021     0.007583  Biso 1.000000     O
    O   1.0     0.479466     0.626578     0.886129  Biso 1.000000     O
    O   1.0     0.886566     0.007341     0.479096  Biso 1.000000     O
    O   1.0     0.007864     0.886083     0.626700  Biso 1.000000     O
    O   1.0     0.008124     0.478988     0.886171  Biso 1.000000     O
    O   1.0     0.886129     0.626539     0.007729  Biso 1.000000     O
    O   1.0     0.479558     0.007469     0.626744  Biso 1.000000     O
    O   1.0     0.626626     0.886003     0.479096  Biso 1.000000     O
    O   1.0     0.886307     0.479039     0.626670  Biso 1.000000     O
    O   1.0     0.007794     0.626627     0.479294  Biso 1.000000     O
    O   1.0     0.626910     0.007482     0.886407  Biso 1.000000     O
    O   1.0     0.479089     0.886200     0.007931  Biso 1.000000     O
   Cu   1.0     0.500136     0.499999     0.065373  Biso 1.000000    Cu
   Cu   1.0     0.499891     0.499992     0.934583  Biso 1.000000    Cu
   Cu   1.0     0.065492     0.934703     0.499975  Biso 1.000000    Cu
   Cu   1.0     0.934541     0.065265     0.500033  Biso 1.000000    Cu
   Cu   1.0     0.500113     0.065307     0.934561  Biso 1.000000    Cu
   Cu   1.0     0.499925     0.934654     0.065471  Biso 1.000000    Cu
   Cu   1.0     0.065506     0.500060     0.499990  Biso 1.000000    Cu
   Cu   1.0     0.934501     0.499938     0.499989  Biso 1.000000    Cu
   Cu   1.0     0.499785     0.934749     0.499975  Biso 1.000000    Cu
   Cu   1.0     0.500230     0.065319     0.500036  Biso 1.000000    Cu
   Cu   1.0     0.065507     0.500042     0.934574  Biso 1.000000    Cu
   Cu   1.0     0.934513     0.499929     0.065425  Biso 1.000000    Cu
