#======================================================================

# CRYSTAL DATA

#----------------------------------------------------------------------

data_VESTA_phase_1


_pd_phase_name                         MOF
_cell_length_a                         12.38900
_cell_length_b                         15.54500
_cell_length_c                         13.35100
_cell_angle_alpha                      75.13000
_cell_angle_beta                       84.71900
_cell_angle_gamma                      90.01900
_symmetry_space_group_name_H-M         "P 1"
_symmetry_Int_Tables_number            1

loop_
_symmetry_equiv_pos_as_xyz
   "x, y, z"

loop_
   _atom_site_label
   _atom_site_occupancy
   _atom_site_fract_x
   _atom_site_fract_y
   _atom_site_fract_z
   _atom_site_adp_type
   _atom_site_B_iso_or_equiv
   _atom_site_type_symbol
    H   1.0     0.436509     0.222852     0.573879  Biso 1.000000     H
    H   1.0     0.436511     0.722858     0.573874  Biso 1.000000     H
    H   1.0     0.936528     0.222852     0.573879  Biso 1.000000     H
    H   1.0     0.936530     0.722858     0.573874  Biso 1.000000     H
    H   1.0     0.500153     0.205969     0.406972  Biso 1.000000     H
    H   1.0     0.500157     0.705974     0.406967  Biso 1.000000     H
    H   1.0     0.000000     0.205969     0.406972  Biso 1.000000     H
    H   1.0     0.000000     0.705974     0.406967  Biso 1.000000     H
    H   1.0     0.369462     0.439227     0.728117  Biso 1.000000     H
    H   1.0     0.369463     0.939231     0.728118  Biso 1.000000     H
    H   1.0     0.869481     0.439226     0.728117  Biso 1.000000     H
    H   1.0     0.869482     0.939231     0.728119  Biso 1.000000     H
    H   1.0     0.302710     0.350684     0.895562  Biso 1.000000     H
    H   1.0     0.302709     0.850687     0.895562  Biso 1.000000     H
    H   1.0     0.802729     0.350684     0.895562  Biso 1.000000     H
    H   1.0     0.802728     0.850687     0.895563  Biso 1.000000     H
    H   1.0     0.345054     0.092629     0.102197  Biso 1.000000     H
    H   1.0     0.345055     0.592631     0.102194  Biso 1.000000     H
    H   1.0     0.845075     0.092629     0.102197  Biso 1.000000     H
    H   1.0     0.845075     0.592632     0.102194  Biso 1.000000     H
    H   1.0     0.490780     0.101543     0.207768  Biso 1.000000     H
    H   1.0     0.490781     0.601546     0.207766  Biso 1.000000     H
    H   1.0     0.990800     0.101544     0.207767  Biso 1.000000     H
    H   1.0     0.990801     0.601547     0.207765  Biso 1.000000     H
    H   1.0     0.064902     0.071910     0.655501  Biso 1.000000     H
    H   1.0     0.064904     0.571916     0.655497  Biso 1.000000     H
    H   1.0     0.564921     0.071910     0.655501  Biso 1.000000     H
    H   1.0     0.564923     0.571916     0.655497  Biso 1.000000     H
    H   1.0     0.162872     0.164082     0.370680  Biso 1.000000     H
    H   1.0     0.162874     0.664087     0.370677  Biso 1.000000     H
    H   1.0     0.662892     0.164081     0.370681  Biso 1.000000     H
    H   1.0     0.662894     0.664086     0.370677  Biso 1.000000     H
    H   1.0     0.240639     0.323511     0.647313  Biso 1.000000     H
    H   1.0     0.240639     0.823517     0.647312  Biso 1.000000     H
    H   1.0     0.740658     0.323511     0.647313  Biso 1.000000     H
    H   1.0     0.740658     0.823517     0.647313  Biso 1.000000     H
    H   1.0     0.134036     0.297448     0.925888  Biso 1.000000     H
    H   1.0     0.134034     0.797452     0.925887  Biso 1.000000     H
    H   1.0     0.634055     0.297448     0.925889  Biso 1.000000     H
    H   1.0     0.634053     0.797452     0.925887  Biso 1.000000     H
    H   1.0     0.254841     0.252398     0.110645  Biso 1.000000     H
    H   1.0     0.254842     0.752400     0.110641  Biso 1.000000     H
    H   1.0     0.754859     0.252397     0.110645  Biso 1.000000     H
    H   1.0     0.754861     0.752400     0.110642  Biso 1.000000     H
    H   1.0     0.502672     0.280804     0.174716  Biso 1.000000     H
    H   1.0     0.502670     0.780807     0.174712  Biso 1.000000     H
    H   1.0     0.000000     0.280804     0.174716  Biso 1.000000     H
    H   1.0     0.000000     0.780807     0.174712  Biso 1.000000     H
    C   1.0     0.104624     0.260245     0.566911  Biso 1.000000     C
    C   1.0     0.104626     0.760252     0.566906  Biso 1.000000     C
    C   1.0     0.604643     0.260245     0.566911  Biso 1.000000     C
    C   1.0     0.604645     0.760251     0.566906  Biso 1.000000     C
    C   1.0     0.015066     0.190072     0.571042  Biso 1.000000     C
    C   1.0     0.015068     0.690077     0.571037  Biso 1.000000     C
    C   1.0     0.515085     0.190071     0.571042  Biso 1.000000     C
    C   1.0     0.515087     0.690077     0.571037  Biso 1.000000     C
    C   1.0     0.028214     0.155072     0.472559  Biso 1.000000     C
    C   1.0     0.028217     0.655078     0.472554  Biso 1.000000     C
    C   1.0     0.528234     0.155072     0.472559  Biso 1.000000     C
    C   1.0     0.528237     0.655078     0.472554  Biso 1.000000     C
    C   1.0     0.458677     0.069886     0.484869  Biso 1.000000     C
    C   1.0     0.458680     0.569891     0.484863  Biso 1.000000     C
    C   1.0     0.958696     0.069886     0.484870  Biso 1.000000     C
    C   1.0     0.958699     0.569891     0.484865  Biso 1.000000     C
    C   1.0     0.201269     0.473642     0.734614  Biso 1.000000     C
    C   1.0     0.201271     0.973647     0.734615  Biso 1.000000     C
    C   1.0     0.701288     0.473642     0.734614  Biso 1.000000     C
    C   1.0     0.701290     0.973647     0.734615  Biso 1.000000     C
    C   1.0     0.290778     0.405288     0.731056  Biso 1.000000     C
    C   1.0     0.290779     0.905293     0.731057  Biso 1.000000     C
    C   1.0     0.790797     0.405288     0.731056  Biso 1.000000     C
    C   1.0     0.790798     0.905293     0.731057  Biso 1.000000     C
    C   1.0     0.276308     0.327554     0.830299  Biso 1.000000     C
    C   1.0     0.276308     0.827558     0.830299  Biso 1.000000     C
    C   1.0     0.776327     0.327554     0.830300  Biso 1.000000     C
    C   1.0     0.776327     0.827558     0.830300  Biso 1.000000     C
    C   1.0     0.346728     0.247602     0.820210  Biso 1.000000     C
    C   1.0     0.346728     0.747606     0.820209  Biso 1.000000     C
    C   1.0     0.846747     0.247601     0.820210  Biso 1.000000     C
    C   1.0     0.846747     0.747606     0.820209  Biso 1.000000     C
    C   1.0     0.269241     0.125486     0.239338  Biso 1.000000     C
    C   1.0     0.269237     0.625489     0.239333  Biso 1.000000     C
    C   1.0     0.769264     0.125486     0.239339  Biso 1.000000     C
    C   1.0     0.769259     0.625489     0.239334  Biso 1.000000     C
    C   1.0     0.343397     0.149183     0.137844  Biso 1.000000     C
    C   1.0     0.343397     0.649185     0.137841  Biso 1.000000     C
    C   1.0     0.843418     0.149183     0.137844  Biso 1.000000     C
    C   1.0     0.843417     0.649186     0.137841  Biso 1.000000     C
    C   1.0     0.460699     0.165543     0.163314  Biso 1.000000     C
    C   1.0     0.460699     0.665545     0.163312  Biso 1.000000     C
    C   1.0     0.960720     0.165544     0.163313  Biso 1.000000     C
    C   1.0     0.960719     0.665546     0.163311  Biso 1.000000     C
    C   1.0     0.032119     0.196277     0.060506  Biso 1.000000     C
    C   1.0     0.032118     0.696281     0.060504  Biso 1.000000     C
    C   1.0     0.532137     0.196277     0.060506  Biso 1.000000     C
    C   1.0     0.532136     0.696280     0.060504  Biso 1.000000     C
    O   1.0     0.120920     0.326406     0.489507  Biso 1.000000     O
    O   1.0     0.120922     0.826412     0.489502  Biso 1.000000     O
    O   1.0     0.620939     0.326406     0.489507  Biso 1.000000     O
    O   1.0     0.620942     0.826412     0.489502  Biso 1.000000     O
    O   1.0     0.157555     0.247136     0.647885  Biso 1.000000     O
    O   1.0     0.157556     0.747142     0.647881  Biso 1.000000     O
    O   1.0     0.657574     0.247135     0.647885  Biso 1.000000     O
    O   1.0     0.657575     0.747142     0.647881  Biso 1.000000     O
    O   1.0     0.013743     0.120641     0.666109  Biso 1.000000     O
    O   1.0     0.013745     0.620647     0.666105  Biso 1.000000     O
    O   1.0     0.513763     0.120641     0.666109  Biso 1.000000     O
    O   1.0     0.513764     0.620646     0.666105  Biso 1.000000     O
    O   1.0     0.139739     0.137614     0.449455  Biso 1.000000     O
    O   1.0     0.139742     0.637619     0.449451  Biso 1.000000     O
    O   1.0     0.639759     0.137614     0.449455  Biso 1.000000     O
    O   1.0     0.639761     0.637619     0.449452  Biso 1.000000     O
    O   1.0     0.508729     0.500272     0.475334  Biso 1.000000     O
    O   1.0     0.508730     0.000000     0.475335  Biso 1.000000     O
    O   1.0     0.000000     0.500272     0.475334  Biso 1.000000     O
    O   1.0     0.000000     0.000000     0.475336  Biso 1.000000     O
    O   1.0     0.357153     0.074412     0.502027  Biso 1.000000     O
    O   1.0     0.357155     0.574419     0.502017  Biso 1.000000     O
    O   1.0     0.857172     0.074412     0.502031  Biso 1.000000     O
    O   1.0     0.857174     0.574419     0.502020  Biso 1.000000     O
    O   1.0     0.148130     0.495867     0.653765  Biso 1.000000     O
    O   1.0     0.148132     0.995872     0.653766  Biso 1.000000     O
    O   1.0     0.648149     0.495866     0.653765  Biso 1.000000     O
    O   1.0     0.648151     0.995871     0.653766  Biso 1.000000     O
    O   1.0     0.184882     0.505655     0.812043  Biso 1.000000     O
    O   1.0     0.184884     0.000000     0.812045  Biso 1.000000     O
    O   1.0     0.684901     0.505654     0.812044  Biso 1.000000     O
    O   1.0     0.684903     0.000000     0.812045  Biso 1.000000     O
    O   1.0     0.291998     0.376928     0.636597  Biso 1.000000     O
    O   1.0     0.291999     0.876933     0.636597  Biso 1.000000     O
    O   1.0     0.792017     0.376927     0.636597  Biso 1.000000     O
    O   1.0     0.792018     0.876933     0.636597  Biso 1.000000     O
    O   1.0     0.164579     0.300237     0.850494  Biso 1.000000     O
    O   1.0     0.164579     0.800241     0.850493  Biso 1.000000     O
    O   1.0     0.664598     0.300236     0.850495  Biso 1.000000     O
    O   1.0     0.664598     0.800241     0.850493  Biso 1.000000     O
    O   1.0     0.297118     0.174693     0.824438  Biso 1.000000     O
    O   1.0     0.297119     0.674698     0.824436  Biso 1.000000     O
    O   1.0     0.797137     0.174693     0.824438  Biso 1.000000     O
    O   1.0     0.797138     0.674698     0.824436  Biso 1.000000     O
    O   1.0     0.448475     0.259130     0.808158  Biso 1.000000     O
    O   1.0     0.448475     0.759135     0.808158  Biso 1.000000     O
    O   1.0     0.948494     0.259130     0.808158  Biso 1.000000     O
    O   1.0     0.948494     0.759135     0.808158  Biso 1.000000     O
    O   1.0     0.274918     0.046911     0.300340  Biso 1.000000     O
    O   1.0     0.274904     0.546913     0.300334  Biso 1.000000     O
    O   1.0     0.774947     0.046912     0.300342  Biso 1.000000     O
    O   1.0     0.774932     0.546914     0.300336  Biso 1.000000     O
    O   1.0     0.208159     0.185725     0.257135  Biso 1.000000     O
    O   1.0     0.208159     0.685731     0.257130  Biso 1.000000     O
    O   1.0     0.708178     0.185723     0.257135  Biso 1.000000     O
    O   1.0     0.708179     0.685730     0.257131  Biso 1.000000     O
    O   1.0     0.306095     0.225519     0.067470  Biso 1.000000     O
    O   1.0     0.306095     0.725522     0.067466  Biso 1.000000     O
    O   1.0     0.806114     0.225519     0.067470  Biso 1.000000     O
    O   1.0     0.806114     0.725522     0.067467  Biso 1.000000     O
    O   1.0     0.462516     0.229500     0.222012  Biso 1.000000     O
    O   1.0     0.462516     0.729502     0.222010  Biso 1.000000     O
    O   1.0     0.962536     0.229501     0.222012  Biso 1.000000     O
    O   1.0     0.962536     0.729503     0.222010  Biso 1.000000     O
    O   1.0     0.045993     0.140293     0.004451  Biso 1.000000     O
    O   1.0     0.045994     0.640296     0.004448  Biso 1.000000     O
    O   1.0     0.546011     0.140292     0.004451  Biso 1.000000     O
    O   1.0     0.546013     0.640296     0.004449  Biso 1.000000     O
    O   1.0     0.071079     0.274548     0.036966  Biso 1.000000     O
    O   1.0     0.071076     0.774552     0.036964  Biso 1.000000     O
    O   1.0     0.571097     0.274548     0.036967  Biso 1.000000     O
    O   1.0     0.571093     0.774552     0.036964  Biso 1.000000     O
   La   1.0     0.205486     0.479365     0.476863  Biso 1.000000    La
   La   1.0     0.205488     0.979371     0.476865  Biso 1.000000    La
   La   1.0     0.705506     0.479365     0.476864  Biso 1.000000    La
   La   1.0     0.705509     0.979371     0.476865  Biso 1.000000    La
   La   1.0     0.101561     0.153033     0.825576  Biso 1.000000    La
   La   1.0     0.101561     0.653038     0.825572  Biso 1.000000    La
   La   1.0     0.601580     0.153033     0.825576  Biso 1.000000    La
   La   1.0     0.601580     0.653038     0.825573  Biso 1.000000    La
