#======================================================================

# CRYSTAL DATA

#----------------------------------------------------------------------

data_VESTA_phase_1


_pd_phase_name                         MOF
_cell_length_a                         16.05600
_cell_length_b                         17.46100
_cell_length_c                         21.05100
_cell_angle_alpha                      89.94400
_cell_angle_beta                       89.87600
_cell_angle_gamma                      100.42200
_symmetry_space_group_name_H-M         "P 1"
_symmetry_Int_Tables_number            1

loop_
_symmetry_equiv_pos_as_xyz
   "x, y, z"

loop_
   _atom_site_label
   _atom_site_occupancy
   _atom_site_fract_x
   _atom_site_fract_y
   _atom_site_fract_z
   _atom_site_adp_type
   _atom_site_B_iso_or_equiv
   _atom_site_type_symbol
    H   1.0     0.317744     0.865767     0.920619  Biso 1.000000     H
    H   1.0     0.441786     0.807843     0.951478  Biso 1.000000     H
    H   1.0     0.322523     0.587681     0.871784  Biso 1.000000     H
    H   1.0     0.195550     0.646085     0.842971  Biso 1.000000     H
    H   1.0     0.550114     0.756888     0.033448  Biso 1.000000     H
    H   1.0     0.543055     0.742610     0.151554  Biso 1.000000     H
    H   1.0     0.387525     0.515621     0.132021  Biso 1.000000     H
    H   1.0     0.397220     0.527906     0.014052  Biso 1.000000     H
    H   1.0     0.572105     0.167372     0.845422  Biso 1.000000     H
    H   1.0     0.622386     0.116057     0.946593  Biso 1.000000     H
    H   1.0     0.535392     0.881060     0.880740  Biso 1.000000     H
    H   1.0     0.482602     0.932209     0.782205  Biso 1.000000     H
    H   1.0     0.922573     0.044543     0.956990  Biso 1.000000     H
    H   1.0     0.822778     0.806593     0.908468  Biso 1.000000     H
    H   1.0     0.678118     0.823564     0.944363  Biso 1.000000     H
    H   1.0     0.750780     0.812224     0.796173  Biso 1.000000     H
    H   1.0     0.611082     0.840002     0.760890  Biso 1.000000     H
    H   1.0     0.515355     0.593322     0.746180  Biso 1.000000     H
    H   1.0     0.654203     0.566053     0.784307  Biso 1.000000     H
    H   1.0     0.492357     0.895895     0.677762  Biso 1.000000     H
    H   1.0     0.530526     0.949430     0.569400  Biso 1.000000     H
    H   1.0     0.503014     0.716976     0.494690  Biso 1.000000     H
    H   1.0     0.468083     0.662301     0.604296  Biso 1.000000     H
    H   1.0     0.779778     0.061203     0.996890  Biso 1.000000     H
    H   1.0     0.181340     0.633873     0.419262  Biso 1.000000     H
    H   1.0     0.058228     0.693071     0.450665  Biso 1.000000     H
    H   1.0     0.180240     0.913000     0.371401  Biso 1.000000     H
    H   1.0     0.306304     0.853359     0.342173  Biso 1.000000     H
    H   1.0     0.951681     0.744733     0.533434  Biso 1.000000     H
    H   1.0     0.958846     0.758258     0.651532  Biso 1.000000     H
    H   1.0     0.115859     0.984691     0.632029  Biso 1.000000     H
    H   1.0     0.105959     0.973216     0.514032  Biso 1.000000     H
    H   1.0     0.927425     0.332714     0.345808  Biso 1.000000     H
    H   1.0     0.877472     0.384206     0.447119  Biso 1.000000     H
    H   1.0     0.965367     0.619104     0.380660  Biso 1.000000     H
    H   1.0     0.017946     0.567778     0.282018  Biso 1.000000     H
    H   1.0     0.578176     0.454908     0.457653  Biso 1.000000     H
    H   1.0     0.677249     0.693205     0.408901  Biso 1.000000     H
    H   1.0     0.821933     0.676682     0.444787  Biso 1.000000     H
    H   1.0     0.749828     0.688069     0.296434  Biso 1.000000     H
    H   1.0     0.889743     0.660323     0.261229  Biso 1.000000     H
    H   1.0     0.985016     0.906958     0.244682  Biso 1.000000     H
    H   1.0     0.845956     0.934244     0.282852  Biso 1.000000     H
    H   1.0     0.000000     0.603767     0.177502  Biso 1.000000     H
    H   1.0     0.970007     0.550193     0.069293  Biso 1.000000     H
    H   1.0    -0.002637     0.782606     0.994048  Biso 1.000000     H
    H   1.0     0.032253     0.837304     0.103479  Biso 1.000000     H
    H   1.0     0.720954     0.438733     0.497548  Biso 1.000000     H
    H   1.0     0.682237     0.134253     0.079357  Biso 1.000000     H
    H   1.0     0.558192     0.192172     0.048498  Biso 1.000000     H
    H   1.0     0.677448     0.412337     0.128190  Biso 1.000000     H
    H   1.0     0.804424     0.353937     0.157004  Biso 1.000000     H
    H   1.0     0.449864     0.243126     0.966525  Biso 1.000000     H
    H   1.0     0.456923     0.257408     0.848420  Biso 1.000000     H
    H   1.0     0.612442     0.484402     0.867958  Biso 1.000000     H
    H   1.0     0.602746     0.472112     0.985927  Biso 1.000000     H
    H   1.0     0.427876     0.832651     0.154555  Biso 1.000000     H
    H   1.0     0.377594     0.883965     0.053384  Biso 1.000000     H
    H   1.0     0.464582     0.118963     0.119238  Biso 1.000000     H
    H   1.0     0.517372     0.067814     0.217773  Biso 1.000000     H
    H   1.0     0.077405     0.955482     0.042986  Biso 1.000000     H
    H   1.0     0.177201     0.193431     0.091508  Biso 1.000000     H
    H   1.0     0.321861     0.176459     0.055612  Biso 1.000000     H
    H   1.0     0.249195     0.187802     0.203804  Biso 1.000000     H
    H   1.0     0.388892     0.160023     0.239088  Biso 1.000000     H
    H   1.0     0.484621     0.406702     0.253800  Biso 1.000000     H
    H   1.0     0.345773     0.433973     0.215673  Biso 1.000000     H
    H   1.0     0.507623     0.104129     0.322215  Biso 1.000000     H
    H   1.0     0.469456     0.050594     0.430578  Biso 1.000000     H
    H   1.0     0.496957     0.283048     0.505286  Biso 1.000000     H
    H   1.0     0.531887     0.337723     0.395680  Biso 1.000000     H
    H   1.0     0.220200     0.938820     0.003085  Biso 1.000000     H
    H   1.0     0.818638     0.366150     0.580713  Biso 1.000000     H
    H   1.0     0.941750     0.306952     0.549311  Biso 1.000000     H
    H   1.0     0.819739     0.087024     0.628577  Biso 1.000000     H
    H   1.0     0.693675     0.146665     0.657805  Biso 1.000000     H
    H   1.0     0.048299     0.255290     0.466542  Biso 1.000000     H
    H   1.0     0.041133     0.241765     0.348444  Biso 1.000000     H
    H   1.0     0.884113     0.015336     0.367947  Biso 1.000000     H
    H   1.0     0.894015     0.026810     0.485944  Biso 1.000000     H
    H   1.0     0.072554     0.667310     0.654168  Biso 1.000000     H
    H   1.0     0.122507     0.615818     0.552857  Biso 1.000000     H
    H   1.0     0.034609     0.380920     0.619316  Biso 1.000000     H
    H   1.0     0.982030     0.432246     0.717957  Biso 1.000000     H
    H   1.0     0.421804     0.545113     0.542322  Biso 1.000000     H
    H   1.0     0.322728     0.306819     0.591079  Biso 1.000000     H
    H   1.0     0.178045     0.323342     0.555193  Biso 1.000000     H
    H   1.0     0.250151     0.311954     0.703544  Biso 1.000000     H
    H   1.0     0.110235     0.339700     0.738749  Biso 1.000000     H
    H   1.0     0.014961     0.093065     0.755293  Biso 1.000000     H
    H   1.0     0.154022     0.065779     0.717123  Biso 1.000000     H
    H   1.0    -0.007955     0.396257     0.822474  Biso 1.000000     H
    H   1.0     0.029967     0.449831     0.930683  Biso 1.000000     H
    H   1.0     0.000000     0.217418     0.005928  Biso 1.000000     H
    H   1.0     0.967723     0.162720     0.896497  Biso 1.000000     H
    H   1.0     0.279025     0.561289     0.502426  Biso 1.000000     H
    C   1.0     0.174118     0.794682     0.862703  Biso 1.000000     C
    C   1.0     0.248371     0.758888     0.880994  Biso 1.000000     C
    C   1.0     0.317925     0.804595     0.911239  Biso 1.000000     C
    C   1.0     0.387781     0.772294     0.928133  Biso 1.000000     C
    C   1.0     0.388135     0.694135     0.913810  Biso 1.000000     C
    C   1.0     0.319681     0.647913     0.883326  Biso 1.000000     C
    C   1.0     0.249507     0.680542     0.867149  Biso 1.000000     C
    C   1.0     0.473134     0.643405     0.017513  Biso 1.000000     C
    C   1.0     0.514905     0.704303     0.055227  Biso 1.000000     C
    C   1.0     0.510738     0.696455     0.120938  Biso 1.000000     C
    C   1.0     0.464103     0.628928     0.148830  Biso 1.000000     C
    C   1.0     0.422473     0.568394     0.110375  Biso 1.000000     C
    C   1.0     0.427350     0.575292     0.044446  Biso 1.000000     C
    C   1.0     0.460832     0.624323     0.219538  Biso 1.000000     C
    C   1.0     0.493166     0.084112     0.747650  Biso 1.000000     C
    C   1.0     0.525884     0.053237     0.807011  Biso 1.000000     C
    C   1.0     0.565072     0.104959     0.853494  Biso 1.000000     C
    C   1.0     0.593716     0.076461     0.909597  Biso 1.000000     C
    C   1.0     0.582957     0.995956     0.918729  Biso 1.000000     C
    C   1.0     0.544299     0.943613     0.872792  Biso 1.000000     C
    C   1.0     0.515301     0.972610     0.817096  Biso 1.000000     C
    C   1.0     0.721364     0.943899     0.971122  Biso 1.000000     C
    C   1.0     0.868852     0.996694     0.954863  Biso 1.000000     C
    C   1.0     0.880225     0.924907     0.929646  Biso 1.000000     C
    C   1.0     0.812265     0.861879     0.927732  Biso 1.000000     C
    C   1.0     0.731958     0.871391     0.947573  Biso 1.000000     C
    C   1.0     0.962596     0.915642     0.901404  Biso 1.000000     C
    C   1.0     0.794331     0.672090     0.815720  Biso 1.000000     C
    C   1.0     0.710710     0.687587     0.793013  Biso 1.000000     C
    C   1.0     0.698727     0.764815     0.785621  Biso 1.000000     C
    C   1.0     0.621071     0.780182     0.765373  Biso 1.000000     C
    C   1.0     0.555904     0.717860     0.751085  Biso 1.000000     C
    C   1.0     0.567151     0.640749     0.757325  Biso 1.000000     C
    C   1.0     0.644654     0.625834     0.778941  Biso 1.000000     C
    C   1.0     0.479608     0.776093     0.646874  Biso 1.000000     C
    C   1.0     0.496269     0.856840     0.638051  Biso 1.000000     C
    C   1.0     0.516907     0.886813     0.577540  Biso 1.000000     C
    C   1.0     0.519605     0.836150     0.526223  Biso 1.000000     C
    C   1.0     0.500963     0.755124     0.535394  Biso 1.000000     C
    C   1.0     0.481769     0.724918     0.596003  Biso 1.000000     C
    C   1.0     0.543719     0.867800     0.462050  Biso 1.000000     C
    C   1.0     0.789389     0.006218     0.976383  Biso 1.000000     C
    C   1.0     0.326210     0.704498     0.361593  Biso 1.000000     C
    C   1.0     0.252046     0.740558     0.379863  Biso 1.000000     C
    C   1.0     0.181938     0.695239     0.410045  Biso 1.000000     C
    C   1.0     0.112605     0.728276     0.427255  Biso 1.000000     C
    C   1.0     0.113304     0.806737     0.413249  Biso 1.000000     C
    C   1.0     0.182266     0.852518     0.382713  Biso 1.000000     C
    C   1.0     0.251910     0.819190     0.366284  Biso 1.000000     C
    C   1.0     0.029356     0.858033     0.517478  Biso 1.000000     C
    C   1.0    -0.012721     0.797034     0.555203  Biso 1.000000     C
    C   1.0    -0.008510     0.804469     0.620921  Biso 1.000000     C
    C   1.0     0.038531     0.871627     0.648837  Biso 1.000000     C
    C   1.0     0.080519     0.932225     0.610372  Biso 1.000000     C
    C   1.0     0.075574     0.925763     0.544436  Biso 1.000000     C
    C   1.0     0.041589     0.875760     0.719577  Biso 1.000000     C
    C   1.0     0.006706     0.415841     0.247692  Biso 1.000000     C
    C   1.0     0.974105     0.446785     0.307124  Biso 1.000000     C
    C   1.0     0.934734     0.395140     0.353796  Biso 1.000000     C
    C   1.0     0.906259     0.423737     0.409961  Biso 1.000000     C
    C   1.0     0.917358     0.504284     0.418941  Biso 1.000000     C
    C   1.0     0.956201     0.556546     0.372816  Biso 1.000000     C
    C   1.0     0.985069     0.527453     0.317070  Biso 1.000000     C
    C   1.0     0.778987     0.556241     0.471636  Biso 1.000000     C
    C   1.0     0.631745     0.502955     0.455518  Biso 1.000000     C
    C   1.0     0.620234     0.574697     0.430224  Biso 1.000000     C
    C   1.0     0.687919     0.637976     0.428244  Biso 1.000000     C
    C   1.0     0.768218     0.628712     0.448052  Biso 1.000000     C
    C   1.0     0.538050     0.583465     0.401768  Biso 1.000000     C
    C   1.0     0.705785     0.828190     0.314836  Biso 1.000000     C
    C   1.0     0.789597     0.812714     0.292279  Biso 1.000000     C
    C   1.0     0.801815     0.735486     0.285501  Biso 1.000000     C
    C   1.0     0.879590     0.720130     0.265294  Biso 1.000000     C
    C   1.0     0.944662     0.782439     0.250449  Biso 1.000000     C
    C   1.0     0.933263     0.859545     0.256219  Biso 1.000000     C
    C   1.0     0.855637     0.874466     0.277815  Biso 1.000000     C
    C   1.0     0.020678     0.723540     0.146294  Biso 1.000000     C
    C   1.0     0.000000     0.642797     0.137718  Biso 1.000000     C
    C   1.0     0.983541     0.612807     0.077305  Biso 1.000000     C
    C   1.0     0.980860     0.663466     0.025912  Biso 1.000000     C
    C   1.0    -0.000564     0.744489     0.034844  Biso 1.000000     C
    C   1.0     0.018544     0.774696     0.095330  Biso 1.000000     C
    C   1.0     0.956762     0.631860     0.961854  Biso 1.000000     C
    C   1.0     0.711163     0.493676     0.477015  Biso 1.000000     C
    C   1.0     0.825861     0.205342     0.137273  Biso 1.000000     C
    C   1.0     0.751607     0.241133     0.118981  Biso 1.000000     C
    C   1.0     0.682054     0.195424     0.088737  Biso 1.000000     C
    C   1.0     0.612196     0.227723     0.071843  Biso 1.000000     C
    C   1.0     0.611840     0.305882     0.086165  Biso 1.000000     C
    C   1.0     0.680292     0.352106     0.116649  Biso 1.000000     C
    C   1.0     0.750468     0.319479     0.132826  Biso 1.000000     C
    C   1.0     0.526838     0.356611     0.982463  Biso 1.000000     C
    C   1.0     0.485070     0.295712     0.944747  Biso 1.000000     C
    C   1.0     0.489238     0.303563     0.879037  Biso 1.000000     C
    C   1.0     0.535870     0.371092     0.851146  Biso 1.000000     C
    C   1.0     0.577496     0.431627     0.889603  Biso 1.000000     C
    C   1.0     0.572619     0.424727     0.955531  Biso 1.000000     C
    C   1.0     0.539142     0.375700     0.780439  Biso 1.000000     C
    C   1.0     0.506813     0.915912     0.252327  Biso 1.000000     C
    C   1.0     0.474095     0.946787     0.192966  Biso 1.000000     C
    C   1.0     0.434907     0.895064     0.146484  Biso 1.000000     C
    C   1.0     0.406263     0.923562     0.090380  Biso 1.000000     C
    C   1.0     0.417020     0.004067     0.081248  Biso 1.000000     C
    C   1.0     0.455677     0.056410     0.127186  Biso 1.000000     C
    C   1.0     0.484674     0.027413     0.182882  Biso 1.000000     C
    C   1.0     0.278615     0.056124     0.028853  Biso 1.000000     C
    C   1.0     0.131127     0.003330     0.045113  Biso 1.000000     C
    C   1.0     0.119754     0.075117     0.070330  Biso 1.000000     C
    C   1.0     0.187714     0.138145     0.072243  Biso 1.000000     C
    C   1.0     0.268021     0.128633     0.052403  Biso 1.000000     C
    C   1.0     0.037384     0.084383     0.098573  Biso 1.000000     C
    C   1.0     0.205646     0.327935     0.184257  Biso 1.000000     C
    C   1.0     0.289266     0.312439     0.206965  Biso 1.000000     C
    C   1.0     0.301248     0.235210     0.214357  Biso 1.000000     C
    C   1.0     0.378904     0.219843     0.234605  Biso 1.000000     C
    C   1.0     0.444071     0.282165     0.248893  Biso 1.000000     C
    C   1.0     0.432824     0.359276     0.242654  Biso 1.000000     C
    C   1.0     0.355322     0.374191     0.221039  Biso 1.000000     C
    C   1.0     0.520368     0.223931     0.353103  Biso 1.000000     C
    C   1.0     0.503710     0.143184     0.361926  Biso 1.000000     C
    C   1.0     0.483072     0.113211     0.422438  Biso 1.000000     C
    C   1.0     0.480372     0.163874     0.473753  Biso 1.000000     C
    C   1.0     0.499010     0.244900     0.464583  Biso 1.000000     C
    C   1.0     0.518204     0.275106     0.403974  Biso 1.000000     C
    C   1.0     0.456259     0.132223     0.537927  Biso 1.000000     C
    C   1.0     0.210589     0.993805     0.023593  Biso 1.000000     C
    C   1.0     0.673769     0.295526     0.638384  Biso 1.000000     C
    C   1.0     0.747932     0.259466     0.620113  Biso 1.000000     C
    C   1.0     0.818041     0.304784     0.589931  Biso 1.000000     C
    C   1.0     0.887373     0.271747     0.572721  Biso 1.000000     C
    C   1.0     0.886674     0.193287     0.586728  Biso 1.000000     C
    C   1.0     0.817713     0.147506     0.617264  Biso 1.000000     C
    C   1.0     0.748069     0.180834     0.633693  Biso 1.000000     C
    C   1.0     0.970622     0.141991     0.482498  Biso 1.000000     C
    C   1.0     0.000000     0.202990     0.444773  Biso 1.000000     C
    C   1.0     0.000000     0.195555     0.379055  Biso 1.000000     C
    C   1.0     0.961445     0.128397     0.351139  Biso 1.000000     C
    C   1.0     0.919456     0.067801     0.389605  Biso 1.000000     C
    C   1.0     0.924401     0.074263     0.455541  Biso 1.000000     C
    C   1.0     0.958388     0.124264     0.280400  Biso 1.000000     C
    C   1.0     0.993272     0.584183     0.752284  Biso 1.000000     C
    C   1.0     0.025873     0.553239     0.692852  Biso 1.000000     C
    C   1.0     0.065244     0.604884     0.646180  Biso 1.000000     C
    C   1.0     0.093720     0.576287     0.590015  Biso 1.000000     C
    C   1.0     0.082620     0.495740     0.581035  Biso 1.000000     C
    C   1.0     0.043775     0.443478     0.627160  Biso 1.000000     C
    C   1.0     0.014908     0.472571     0.682906  Biso 1.000000     C
    C   1.0     0.220992     0.443782     0.528341  Biso 1.000000     C
    C   1.0     0.368235     0.497066     0.544456  Biso 1.000000     C
    C   1.0     0.379744     0.425326     0.569755  Biso 1.000000     C
    C   1.0     0.312059     0.362046     0.571733  Biso 1.000000     C
    C   1.0     0.231760     0.371312     0.551928  Biso 1.000000     C
    C   1.0     0.461929     0.416557     0.598208  Biso 1.000000     C
    C   1.0     0.294193     0.171833     0.685141  Biso 1.000000     C
    C   1.0     0.210381     0.187309     0.707698  Biso 1.000000     C
    C   1.0     0.198164     0.264538     0.714477  Biso 1.000000     C
    C   1.0     0.120388     0.279893     0.734683  Biso 1.000000     C
    C   1.0     0.055316     0.217584     0.749528  Biso 1.000000     C
    C   1.0     0.066715     0.140478     0.743757  Biso 1.000000     C
    C   1.0     0.144341     0.125558     0.722162  Biso 1.000000     C
    C   1.0     0.979298     0.276484     0.853682  Biso 1.000000     C
    C   1.0    -0.004068     0.357227     0.862258  Biso 1.000000     C
    C   1.0     0.016433     0.387217     0.922671  Biso 1.000000     C
    C   1.0     0.019114     0.336558     0.974064  Biso 1.000000     C
    C   1.0     0.000000     0.255535     0.965132  Biso 1.000000     C
    C   1.0     0.981431     0.225328     0.904647  Biso 1.000000     C
    C   1.0     0.043212     0.368164     0.038122  Biso 1.000000     C
    C   1.0     0.288816     0.506347     0.522962  Biso 1.000000     C
    O   1.0     0.180509     0.868111     0.874672  Biso 1.000000     O
    O   1.0     0.111106     0.752504     0.836332  Biso 1.000000     O
    O   1.0     0.554077     0.712851     0.919076  Biso 1.000000     O
    O   1.0     0.468998     0.576283     0.905285  Biso 1.000000     O
    O   1.0     0.512245     0.673958     0.250586  Biso 1.000000     O
    O   1.0     0.406391     0.570049     0.245989  Biso 1.000000     O
    O   1.0     0.489728     0.155694     0.744054  Biso 1.000000     O
    O   1.0     0.468680     0.033621     0.703201  Biso 1.000000     O
    O   1.0     0.625088     0.020086     0.038733  Biso 1.000000     O
    O   1.0     0.565254     0.882723     0.002690  Biso 1.000000     O
    O   1.0     0.000000     0.976764     0.885961  Biso 1.000000     O
    O   1.0     0.979101     0.847852     0.891038  Biso 1.000000     O
    O   1.0     0.854799     0.729682     0.819622  Biso 1.000000     O
    O   1.0     0.797962     0.601024     0.830256  Biso 1.000000     O
    O   1.0     0.434639     0.800014     0.763951  Biso 1.000000     O
    O   1.0     0.398402     0.663067     0.719016  Biso 1.000000     O
    O   1.0     0.579408     0.939572     0.455179  Biso 1.000000     O
    O   1.0     0.530928     0.823591     0.413279  Biso 1.000000     O
    O   1.0     0.319294     0.630785     0.372458  Biso 1.000000     O
    O   1.0     0.389970     0.747250     0.336317  Biso 1.000000     O
    O   1.0     0.947529     0.790124     0.419188  Biso 1.000000     O
    O   1.0     0.034454     0.926067     0.405436  Biso 1.000000     O
    O   1.0     0.989579     0.826282     0.750514  Biso 1.000000     O
    O   1.0     0.096410     0.929522     0.746086  Biso 1.000000     O
    O   1.0     0.009787     0.344205     0.244049  Biso 1.000000     O
    O   1.0     0.031516     0.466441     0.203220  Biso 1.000000     O
    O   1.0     0.875118     0.480024     0.538961  Biso 1.000000     O
    O   1.0     0.935023     0.617560     0.502675  Biso 1.000000     O
    O   1.0     0.484526     0.522204     0.386040  Biso 1.000000     O
    O   1.0     0.520938     0.651082     0.391321  Biso 1.000000     O
    O   1.0     0.645648     0.770376     0.319763  Biso 1.000000     O
    O   1.0     0.701605     0.899435     0.328177  Biso 1.000000     O
    O   1.0     0.065781     0.700404     0.263531  Biso 1.000000     O
    O   1.0     0.102166     0.836866     0.217011  Biso 1.000000     O
    O   1.0     0.921132     0.560105     0.955192  Biso 1.000000     O
    O   1.0     0.969399     0.676155     0.913000  Biso 1.000000     O
    O   1.0     0.819472     0.131913     0.125304  Biso 1.000000     O
    O   1.0     0.888872     0.247521     0.163644  Biso 1.000000     O
    O   1.0     0.445896     0.287167     0.080901  Biso 1.000000     O
    O   1.0     0.530979     0.423735     0.094690  Biso 1.000000     O
    O   1.0     0.487728     0.326066     0.749389  Biso 1.000000     O
    O   1.0     0.593586     0.429973     0.753989  Biso 1.000000     O
    O   1.0     0.510251     0.844330     0.255923  Biso 1.000000     O
    O   1.0     0.531299     0.966403     0.296776  Biso 1.000000     O
    O   1.0     0.374891     0.979936     0.961244  Biso 1.000000     O
    O   1.0     0.434725     0.117299     0.997287  Biso 1.000000     O
    O   1.0    -0.016819     0.023260     0.114015  Biso 1.000000     O
    O   1.0     0.020879     0.152172     0.108938  Biso 1.000000     O
    O   1.0     0.145178     0.270344     0.180354  Biso 1.000000     O
    O   1.0     0.202015     0.399002     0.169720  Biso 1.000000     O
    O   1.0     0.565335     0.200010     0.236025  Biso 1.000000     O
    O   1.0     0.601573     0.336956     0.280960  Biso 1.000000     O
    O   1.0     0.420571     0.060451     0.544798  Biso 1.000000     O
    O   1.0     0.469051     0.176433     0.586698  Biso 1.000000     O
    O   1.0     0.680686     0.369239     0.627519  Biso 1.000000     O
    O   1.0     0.610009     0.252774     0.663660  Biso 1.000000     O
    O   1.0     0.052450     0.209900     0.580789  Biso 1.000000     O
    O   1.0     0.965525     0.073957     0.594540  Biso 1.000000     O
    O   1.0     0.010399     0.173741     0.249462  Biso 1.000000     O
    O   1.0     0.903566     0.070502     0.253890  Biso 1.000000     O
    O   1.0     0.990191     0.655819     0.755927  Biso 1.000000     O
    O   1.0     0.968462     0.533583     0.796756  Biso 1.000000     O
    O   1.0     0.124862     0.519999     0.461015  Biso 1.000000     O
    O   1.0     0.064955     0.382463     0.497301  Biso 1.000000     O
    O   1.0     0.515452     0.477818     0.613937  Biso 1.000000     O
    O   1.0     0.479041     0.348940     0.608655  Biso 1.000000     O
    O   1.0     0.354331     0.229648     0.680214  Biso 1.000000     O
    O   1.0     0.298374     0.100588     0.671800  Biso 1.000000     O
    O   1.0     0.934198     0.299620     0.736445  Biso 1.000000     O
    O   1.0     0.897810     0.163159     0.782965  Biso 1.000000     O
    O   1.0     0.078838     0.439920     0.044785  Biso 1.000000     O
    O   1.0     0.030580     0.323868     0.086976  Biso 1.000000     O
    S   1.0     0.479589     0.653845     0.933087  Biso 1.000000     S
    S   1.0     0.617489     0.958866     0.991053  Biso 1.000000     S
    S   1.0     0.456002     0.737274     0.725005  Biso 1.000000     S
    S   1.0     0.022721     0.848244     0.433043  Biso 1.000000     S
    S   1.0     0.882848     0.541397     0.491294  Biso 1.000000     S
    S   1.0     0.044503     0.762792     0.224080  Biso 1.000000     S
    S   1.0     0.520386     0.346172     0.066889  Biso 1.000000     S
    S   1.0     0.382489     0.041156     0.008924  Biso 1.000000     S
    S   1.0     0.543973     0.262750     0.274972  Biso 1.000000     S
    S   1.0     0.977258     0.151780     0.566934  Biso 1.000000     S
    S   1.0     0.117130     0.458626     0.508682  Biso 1.000000     S
    S   1.0     0.955474     0.237231     0.775896  Biso 1.000000     S
   Zn   1.0     0.092983     0.916843     0.838708  Biso 1.000000    Zn
   Zn   1.0     0.983470     0.746371     0.822223  Biso 1.000000    Zn
   Zn   1.0     0.402601     0.073958     0.638925  Biso 1.000000    Zn
   Zn   1.0     0.409317     0.583125     0.338609  Biso 1.000000    Zn
   Zn   1.0     0.517102     0.753740     0.322117  Biso 1.000000    Zn
   Zn   1.0     0.097384     0.426110     0.138769  Biso 1.000000    Zn
   Zn   1.0     0.906997     0.083180     0.161269  Biso 1.000000    Zn
   Zn   1.0     0.016508     0.253653     0.177754  Biso 1.000000    Zn
   Zn   1.0     0.597378     0.926065     0.361052  Biso 1.000000    Zn
   Zn   1.0     0.590662     0.416898     0.661369  Biso 1.000000    Zn
   Zn   1.0     0.482877     0.246284     0.677860  Biso 1.000000    Zn
   Zn   1.0     0.902594     0.573914     0.861207  Biso 1.000000    Zn
