#======================================================================

# CRYSTAL DATA

#----------------------------------------------------------------------

data_VESTA_phase_1


_pd_phase_name                         MOF
_cell_length_a                         17.55900
_cell_length_b                         17.57000
_cell_length_c                         22.92800
_cell_angle_alpha                      90.01500
_cell_angle_beta                       90.00800
_cell_angle_gamma                      89.99000
_symmetry_space_group_name_H-M         "P 1"
_symmetry_Int_Tables_number            1

loop_
_symmetry_equiv_pos_as_xyz
   "x, y, z"

loop_
   _atom_site_label
   _atom_site_occupancy
   _atom_site_fract_x
   _atom_site_fract_y
   _atom_site_fract_z
   _atom_site_adp_type
   _atom_site_B_iso_or_equiv
   _atom_site_type_symbol
    H   1.0     0.629809     0.959650     0.515095  Biso 1.000000     H
    H   1.0     0.546487     0.784319     0.780123  Biso 1.000000     H
    H   1.0     0.701222     0.676480     0.727936  Biso 1.000000     H
    H   1.0     0.467317     0.135789     0.698162  Biso 1.000000     H
    H   1.0     0.906807     0.825694     0.736160  Biso 1.000000     H
    H   1.0     0.539823     0.177465     0.399942  Biso 1.000000     H
    H   1.0     0.670466     0.017009     0.709190  Biso 1.000000     H
    H   1.0     0.630025     0.960455     0.406060  Biso 1.000000     H
    H   1.0     0.536767     0.187341     0.508648  Biso 1.000000     H
    H   1.0     0.471687     0.137126     0.590174  Biso 1.000000     H
    H   1.0     0.754394     0.943774     0.784900  Biso 1.000000     H
    H   1.0     0.685005     0.014620     0.601175  Biso 1.000000     H
    H   1.0     0.370205     0.040365     0.515138  Biso 1.000000     H
    H   1.0     0.453516     0.215677     0.780129  Biso 1.000000     H
    H   1.0     0.298779     0.323497     0.727933  Biso 1.000000     H
    H   1.0     0.532651     0.864190     0.698170  Biso 1.000000     H
    H   1.0     0.093181     0.174309     0.736148  Biso 1.000000     H
    H   1.0     0.460226     0.822578     0.399901  Biso 1.000000     H
    H   1.0     0.329495     0.982959     0.709187  Biso 1.000000     H
    H   1.0     0.370017     0.039585     0.406100  Biso 1.000000     H
    H   1.0     0.463258     0.812680     0.508602  Biso 1.000000     H
    H   1.0     0.528309     0.862874     0.590180  Biso 1.000000     H
    H   1.0     0.245591     0.056251     0.784903  Biso 1.000000     H
    H   1.0     0.314980     0.985363     0.601167  Biso 1.000000     H
    H   1.0     0.959783     0.370206     0.484831  Biso 1.000000     H
    H   1.0     0.784234     0.453455     0.219867  Biso 1.000000     H
    H   1.0     0.676369     0.298753     0.271925  Biso 1.000000     H
    H   1.0     0.135887     0.532743     0.301875  Biso 1.000000     H
    H   1.0     0.825817     0.093354     0.263672  Biso 1.000000     H
    H   1.0     0.177556     0.460385     0.600121  Biso 1.000000     H
    H   1.0     0.017198     0.329668     0.290775  Biso 1.000000     H
    H   1.0     0.960500     0.370072     0.593870  Biso 1.000000     H
    H   1.0     0.187534     0.463340     0.491422  Biso 1.000000     H
    H   1.0     0.137264     0.528338     0.409863  Biso 1.000000     H
    H   1.0     0.943905     0.245762     0.215096  Biso 1.000000     H
    H   1.0     0.014852     0.315101     0.398785  Biso 1.000000     H
    H   1.0     0.040189     0.629788     0.484896  Biso 1.000000     H
    H   1.0     0.215741     0.546546     0.219875  Biso 1.000000     H
    H   1.0     0.323623     0.701271     0.271951  Biso 1.000000     H
    H   1.0     0.864079     0.467272     0.301822  Biso 1.000000     H
    H   1.0     0.174170     0.906664     0.263729  Biso 1.000000     H
    H   1.0     0.822435     0.539521     0.600088  Biso 1.000000     H
    H   1.0     0.982788     0.670339     0.290844  Biso 1.000000     H
    H   1.0     0.039468     0.629889     0.593935  Biso 1.000000     H
    H   1.0     0.812456     0.536607     0.491384  Biso 1.000000     H
    H   1.0     0.862708     0.471659     0.409809  Biso 1.000000     H
    H   1.0     0.056073     0.754236     0.215109  Biso 1.000000     H
    H   1.0     0.985133     0.684891     0.398862  Biso 1.000000     H
    H   1.0     0.870264     0.459618     0.984823  Biso 1.000000     H
    H   1.0     0.953517     0.284304     0.719869  Biso 1.000000     H
    H   1.0     0.798812     0.176497     0.772044  Biso 1.000000     H
    H   1.0     0.032671     0.635723     0.801821  Biso 1.000000     H
    H   1.0     0.593194     0.325743     0.763842  Biso 1.000000     H
    H   1.0     0.960266     0.677408     0.100078  Biso 1.000000     H
    H   1.0     0.829500     0.517065     0.790771  Biso 1.000000     H
    H   1.0     0.870113     0.460385     0.093856  Biso 1.000000     H
    H   1.0     0.963243     0.687329    -0.008622  Biso 1.000000     H
    H   1.0     0.028321     0.637073     0.909812  Biso 1.000000     H
    H   1.0     0.745570     0.443761     0.715089  Biso 1.000000     H
    H   1.0     0.814978     0.514692     0.898789  Biso 1.000000     H
    H   1.0     0.129746     0.540331     0.984894  Biso 1.000000     H
    H   1.0     0.046479     0.715673     0.719878  Biso 1.000000     H
    H   1.0     0.201212     0.823509     0.772044  Biso 1.000000     H
    H   1.0     0.967318     0.364245     0.801782  Biso 1.000000     H
    H   1.0     0.406820     0.674254     0.763832  Biso 1.000000     H
    H   1.0     0.039677     0.322576     0.100031  Biso 1.000000     H
    H   1.0     0.170481     0.482918     0.790822  Biso 1.000000     H
    H   1.0     0.129883     0.539577     0.093925  Biso 1.000000     H
    H   1.0     0.036712     0.312660    -0.008676  Biso 1.000000     H
    H   1.0     0.971672     0.362885     0.909770  Biso 1.000000     H
    H   1.0     0.254413     0.556198     0.715097  Biso 1.000000     H
    H   1.0     0.185008     0.485278     0.898845  Biso 1.000000     H
    H   1.0     0.540234     0.870163     0.015100  Biso 1.000000     H
    H   1.0     0.715729     0.953447     0.280098  Biso 1.000000     H
    H   1.0     0.823582     0.798700     0.227980  Biso 1.000000     H
    H   1.0     0.364052     0.032697     0.198147  Biso 1.000000     H
    H   1.0     0.674135     0.593362     0.236151  Biso 1.000000     H
    H   1.0     0.322418     0.960408     0.899892  Biso 1.000000     H
    H   1.0     0.482861     0.829672     0.209160  Biso 1.000000     H
    H   1.0     0.539481     0.870013     0.906068  Biso 1.000000     H
    H   1.0     0.312478     0.963369     0.000000  Biso 1.000000     H
    H   1.0     0.362714     0.028317     0.090158  Biso 1.000000     H
    H   1.0     0.556097     0.745788     0.284918  Biso 1.000000     H
    H   1.0     0.485233     0.815121     0.101145  Biso 1.000000     H
    H   1.0     0.459758     0.129863     0.015104  Biso 1.000000     H
    H   1.0     0.284255     0.046575     0.280113  Biso 1.000000     H
    H   1.0     0.176401     0.201292     0.227976  Biso 1.000000     H
    H   1.0     0.635909     0.967286     0.198110  Biso 1.000000     H
    H   1.0     0.325868     0.406625     0.236157  Biso 1.000000     H
    H   1.0     0.677612     0.039676     0.899904  Biso 1.000000     H
    H   1.0     0.517100     0.170307     0.209200  Biso 1.000000     H
    H   1.0     0.460531     0.130029     0.906072  Biso 1.000000     H
    H   1.0     0.687539     0.036677     0.000000  Biso 1.000000     H
    H   1.0     0.637273     0.971702     0.090122  Biso 1.000000     H
    H   1.0     0.443907     0.254220     0.284927  Biso 1.000000     H
    H   1.0     0.514750     0.184893     0.101194  Biso 1.000000     H
    C   1.0     0.582329     0.073513     0.521492  Biso 1.000000     C
    C   1.0     0.578649     0.075037     0.585833  Biso 1.000000     C
    C   1.0     0.606942     0.909127     0.796696  Biso 1.000000     C
    C   1.0     0.609851     0.009614     0.491498  Biso 1.000000     C
    C   1.0     0.667993     0.857140     0.776522  Biso 1.000000     C
    C   1.0     0.712588     0.735261     0.740194  Biso 1.000000     C
    C   1.0     0.652542     0.780322     0.760453  Biso 1.000000     C
    C   1.0     0.786786     0.763201     0.735986  Biso 1.000000     C
    C   1.0     0.514169     0.108756     0.675074  Biso 1.000000     C
    C   1.0     0.559011     0.130661     0.427443  Biso 1.000000     C
    C   1.0     0.627560     0.042470     0.680967  Biso 1.000000     C
    C   1.0     0.609722     0.009228     0.430887  Biso 1.000000     C
    C   1.0     0.556941     0.135315     0.487895  Biso 1.000000     C
    C   1.0     0.802716     0.839789     0.752461  Biso 1.000000     C
    C   1.0     0.517516     0.110041     0.614567  Biso 1.000000     C
    C   1.0     0.742835     0.885214     0.772095  Biso 1.000000     C
    C   1.0     0.634908     0.041003     0.620618  Biso 1.000000     C
    C   1.0     0.849638     0.712302     0.716433  Biso 1.000000     C
    C   1.0     0.417687     0.926502     0.521491  Biso 1.000000     C
    C   1.0     0.421344     0.924958     0.585833  Biso 1.000000     C
    C   1.0     0.393057     0.090890     0.796699  Biso 1.000000     C
    C   1.0     0.390171     0.990407     0.491520  Biso 1.000000     C
    C   1.0     0.332003     0.142868     0.776526  Biso 1.000000     C
    C   1.0     0.287411     0.264724     0.740190  Biso 1.000000     C
    C   1.0     0.347457     0.219672     0.760455  Biso 1.000000     C
    C   1.0     0.213206     0.236795     0.735988  Biso 1.000000     C
    C   1.0     0.485805     0.891225     0.675078  Biso 1.000000     C
    C   1.0     0.441032     0.869376     0.427420  Biso 1.000000     C
    C   1.0     0.372410     0.957505     0.680966  Biso 1.000000     C
    C   1.0     0.390315     0.990807     0.430910  Biso 1.000000     C
    C   1.0     0.443087     0.864709     0.487870  Biso 1.000000     C
    C   1.0     0.197275     0.160217     0.752456  Biso 1.000000     C
    C   1.0     0.482474     0.889953     0.614570  Biso 1.000000     C
    C   1.0     0.257154     0.114801     0.772102  Biso 1.000000     C
    C   1.0     0.365074     0.958981     0.620615  Biso 1.000000     C
    C   1.0     0.150355     0.287688     0.716431  Biso 1.000000     C
    C   1.0     0.073680     0.417745     0.478505  Biso 1.000000     C
    C   1.0     0.075222     0.421416     0.414165  Biso 1.000000     C
    C   1.0     0.909119     0.393090     0.203295  Biso 1.000000     C
    C   1.0     0.009748     0.390213     0.508461  Biso 1.000000     C
    C   1.0     0.857143     0.332058     0.223453  Biso 1.000000     C
    C   1.0     0.735205     0.287422     0.259704  Biso 1.000000     C
    C   1.0     0.780263     0.347460     0.239493  Biso 1.000000     C
    C   1.0     0.763214     0.213273     0.263887  Biso 1.000000     C
    C   1.0     0.108885     0.485899     0.324946  Biso 1.000000     C
    C   1.0     0.130768     0.441152     0.572590  Biso 1.000000     C
    C   1.0     0.042648     0.372550     0.319015  Biso 1.000000     C
    C   1.0     0.009312     0.390387     0.569070  Biso 1.000000     C
    C   1.0     0.135475     0.443170     0.512141  Biso 1.000000     C
    C   1.0     0.839881     0.197401     0.247467  Biso 1.000000     C
    C   1.0     0.110192     0.482535     0.385452  Biso 1.000000     C
    C   1.0     0.885290     0.257273     0.227866  Biso 1.000000     C
    C   1.0     0.041206     0.365185     0.379361  Biso 1.000000     C
    C   1.0     0.712354     0.150396     0.283386  Biso 1.000000     C
    C   1.0     0.926293     0.582243     0.478518  Biso 1.000000     C
    C   1.0     0.924768     0.578568     0.414177  Biso 1.000000     C
    C   1.0     0.090859     0.606909     0.203308  Biso 1.000000     C
    C   1.0     0.990228     0.609760     0.508502  Biso 1.000000     C
    C   1.0     0.142841     0.667949     0.223463  Biso 1.000000     C
    C   1.0     0.264786     0.712598     0.259723  Biso 1.000000     C
    C   1.0     0.219722     0.652549     0.239508  Biso 1.000000     C
    C   1.0     0.236774     0.786747     0.263916  Biso 1.000000     C
    C   1.0     0.891086     0.514113     0.324918  Biso 1.000000     C
    C   1.0     0.869219     0.558773     0.572578  Biso 1.000000     C
    C   1.0     0.957334     0.627457     0.319058  Biso 1.000000     C
    C   1.0     0.990665     0.609568     0.569111  Biso 1.000000     C
    C   1.0     0.864512     0.556775     0.512127  Biso 1.000000     C
    C   1.0     0.160108     0.802616     0.247487  Biso 1.000000     C
    C   1.0     0.889780     0.517465     0.385426  Biso 1.000000     C
    C   1.0     0.114691     0.742736     0.227883  Biso 1.000000     C
    C   1.0     0.958774     0.634812     0.379408  Biso 1.000000     C
    C   1.0     0.287640     0.849620     0.283444  Biso 1.000000     C
    C   1.0     0.917710     0.573499     0.978482  Biso 1.000000     C
    C   1.0     0.921351     0.575047     0.914141  Biso 1.000000     C
    C   1.0     0.893044     0.409096     0.703294  Biso 1.000000     C
    C   1.0     0.890223     0.509601     0.008443  Biso 1.000000     C
    C   1.0     0.832000     0.357128     0.723466  Biso 1.000000     C
    C   1.0     0.787429     0.235275     0.759796  Biso 1.000000     C
    C   1.0     0.847463     0.280317     0.739531  Biso 1.000000     C
    C   1.0     0.713220     0.263219     0.764003  Biso 1.000000     C
    C   1.0     0.985826     0.608723     0.824908  Biso 1.000000     C
    C   1.0     0.941069     0.630618     0.072555  Biso 1.000000     C
    C   1.0     0.872417     0.542502     0.819000  Biso 1.000000     C
    C   1.0     0.890391     0.509189     0.069054  Biso 1.000000     C
    C   1.0     0.943097     0.635296     0.012105  Biso 1.000000     C
    C   1.0     0.697281     0.339804     0.747536  Biso 1.000000     C
    C   1.0     0.982490     0.610012     0.885415  Biso 1.000000     C
    C   1.0     0.757148     0.385206     0.727887  Biso 1.000000     C
    C   1.0     0.865078     0.541044     0.879349  Biso 1.000000     C
    C   1.0     0.650367     0.212347     0.783556  Biso 1.000000     C
    C   1.0     0.082279     0.426458     0.978491  Biso 1.000000     C
    C   1.0     0.078635     0.424922     0.914148  Biso 1.000000     C
    C   1.0     0.106944     0.590869     0.703312  Biso 1.000000     C
    C   1.0     0.109770     0.490370     0.008485  Biso 1.000000     C
    C   1.0     0.167995     0.642846     0.723478  Biso 1.000000     C
    C   1.0     0.212586     0.764723     0.759795  Biso 1.000000     C
    C   1.0     0.152540     0.719669     0.739540  Biso 1.000000     C
    C   1.0     0.286790     0.736770     0.764011  Biso 1.000000     C
    C   1.0     0.014163     0.391247     0.824887  Biso 1.000000     C
    C   1.0     0.058888     0.369362     0.072533  Biso 1.000000     C
    C   1.0     0.127568     0.457475     0.819032  Biso 1.000000     C
    C   1.0     0.109595     0.490781     0.069095  Biso 1.000000     C
    C   1.0     0.056869     0.364685     0.012081  Biso 1.000000     C
    C   1.0     0.302724     0.660178     0.747535  Biso 1.000000     C
    C   1.0     0.017502     0.389950     0.885394  Biso 1.000000     C
    C   1.0     0.242846     0.614761     0.727900  Biso 1.000000     C
    C   1.0     0.134909     0.458926     0.879384  Biso 1.000000     C
    C   1.0     0.349648     0.787657     0.783561  Biso 1.000000     C
    C   1.0     0.426333     0.917750     0.021468  Biso 1.000000     C
    C   1.0     0.424805     0.921424     0.085810  Biso 1.000000     C
    C   1.0     0.590870     0.893108     0.296703  Biso 1.000000     C
    C   1.0     0.490259     0.890184     0.991495  Biso 1.000000     C
    C   1.0     0.642847     0.832057     0.276540  Biso 1.000000     C
    C   1.0     0.764757     0.787391     0.240227  Biso 1.000000     C
    C   1.0     0.719714     0.847442     0.260478  Biso 1.000000     C
    C   1.0     0.736742     0.713254     0.236018  Biso 1.000000     C
    C   1.0     0.391083     0.985884     0.175057  Biso 1.000000     C
    C   1.0     0.369218     0.941166     0.927407  Biso 1.000000     C
    C   1.0     0.457390     0.872553     0.180941  Biso 1.000000     C
    C   1.0     0.490675     0.890354     0.930885  Biso 1.000000     C
    C   1.0     0.364532     0.943186     0.987857  Biso 1.000000     C
    C   1.0     0.660100     0.697393     0.252484  Biso 1.000000     C
    C   1.0     0.389793     0.982531     0.114549  Biso 1.000000     C
    C   1.0     0.614702     0.757278     0.272124  Biso 1.000000     C
    C   1.0     0.458844     0.865194     0.120591  Biso 1.000000     C
    C   1.0     0.787587     0.650385     0.216440  Biso 1.000000     C
    C   1.0     0.573666     0.082292     0.021476  Biso 1.000000     C
    C   1.0     0.575187     0.078597     0.085816  Biso 1.000000     C
    C   1.0     0.409129     0.106908     0.296708  Biso 1.000000     C
    C   1.0     0.509749     0.109839     0.991501  Biso 1.000000     C
    C   1.0     0.357150     0.167951     0.276541  Biso 1.000000     C
    C   1.0     0.235231     0.212606     0.240224  Biso 1.000000     C
    C   1.0     0.280277     0.152564     0.260474  Biso 1.000000     C
    C   1.0     0.263253     0.286737     0.236010  Biso 1.000000     C
    C   1.0     0.608882     0.014106     0.175038  Biso 1.000000     C
    C   1.0     0.630805     0.058902     0.927417  Biso 1.000000     C
    C   1.0     0.542576     0.127436     0.180964  Biso 1.000000     C
    C   1.0     0.509339     0.109689     0.930891  Biso 1.000000     C
    C   1.0     0.635485     0.056861     0.987867  Biso 1.000000     C
    C   1.0     0.339899     0.302602     0.252488  Biso 1.000000     C
    C   1.0     0.610182     0.017475     0.114531  Biso 1.000000     C
    C   1.0     0.385299     0.242725     0.272127  Biso 1.000000     C
    C   1.0     0.541131     0.134810     0.120618  Biso 1.000000     C
    C   1.0     0.212410     0.349606     0.216435  Biso 1.000000     C
    N   1.0     0.567664     0.074912     0.708211  Biso 1.000000     N
    N   1.0     0.584270     0.068363     0.399051  Biso 1.000000     N
    N   1.0     0.432304     0.925065     0.708214  Biso 1.000000     N
    N   1.0     0.415776     0.931680     0.399053  Biso 1.000000     N
    N   1.0     0.075047     0.432433     0.291791  Biso 1.000000     N
    N   1.0     0.068427     0.415899     0.600941  Biso 1.000000     N
    N   1.0     0.924931     0.567579     0.291798  Biso 1.000000     N
    N   1.0     0.931553     0.584039     0.600955  Biso 1.000000     N
    N   1.0     0.932320     0.574904     0.791765  Biso 1.000000     N
    N   1.0     0.915845     0.568310     0.100917  Biso 1.000000     N
    N   1.0     0.067665     0.425075     0.791770  Biso 1.000000     N
    N   1.0     0.084128     0.431663     0.100927  Biso 1.000000     N
    N   1.0     0.424945     0.932421     0.208191  Biso 1.000000     N
    N   1.0     0.431550     0.915889     0.899036  Biso 1.000000     N
    N   1.0     0.575014     0.067559     0.208190  Biso 1.000000     N
    N   1.0     0.568472     0.084175     0.899043  Biso 1.000000     N
    O   1.0     0.623064     0.978263     0.807058  Biso 1.000000     O
    O   1.0     0.582751     0.747231     0.762810  Biso 1.000000     O
    O   1.0     0.873672     0.869374     0.749895  Biso 1.000000     O
    O   1.0     0.539802     0.879968     0.802515  Biso 1.000000     O
    O   1.0     0.832950     0.643248     0.702380  Biso 1.000000     O
    O   1.0     0.917421     0.737699     0.715570  Biso 1.000000     O
    O   1.0     0.376934     0.021762     0.807062  Biso 1.000000     O
    O   1.0     0.417253     0.252757     0.762811  Biso 1.000000     O
    O   1.0     0.126314     0.130638     0.749891  Biso 1.000000     O
    O   1.0     0.460204     0.120043     0.802513  Biso 1.000000     O
    O   1.0     0.167047     0.356731     0.702377  Biso 1.000000     O
    O   1.0     0.082575     0.262286     0.715539  Biso 1.000000     O
    O   1.0     0.978298     0.376965     0.192934  Biso 1.000000     O
    O   1.0     0.747144     0.417221     0.237186  Biso 1.000000     O
    O   1.0     0.869546     0.126508     0.250058  Biso 1.000000     O
    O   1.0     0.879932     0.460194     0.197485  Biso 1.000000     O
    O   1.0     0.643298     0.167019     0.297598  Biso 1.000000     O
    O   1.0     0.737806     0.082654     0.284081  Biso 1.000000     O
    O   1.0     0.021672     0.623025     0.192956  Biso 1.000000     O
    O   1.0     0.252844     0.582789     0.237188  Biso 1.000000     O
    O   1.0     0.130453     0.873517     0.250068  Biso 1.000000     O
    O   1.0     0.120048     0.539802     0.197497  Biso 1.000000     O
    O   1.0     0.356716     0.832996     0.297600  Biso 1.000000     O
    O   1.0     0.262172     0.917356     0.284224  Biso 1.000000     O
    O   1.0     0.876909     0.478225     0.692927  Biso 1.000000     O
    O   1.0     0.917269     0.247228     0.737188  Biso 1.000000     O
    O   1.0     0.626322     0.369407     0.750106  Biso 1.000000     O
    O   1.0     0.960197     0.379937     0.697481  Biso 1.000000     O
    O   1.0     0.667048     0.143289     0.797601  Biso 1.000000     O
    O   1.0     0.582587     0.237780     0.784425  Biso 1.000000     O
    O   1.0     0.123071     0.521731     0.692942  Biso 1.000000     O
    O   1.0     0.082738     0.752765     0.737186  Biso 1.000000     O
    O   1.0     0.373685     0.630579     0.750102  Biso 1.000000     O
    O   1.0     0.039797     0.620040     0.697486  Biso 1.000000     O
    O   1.0     0.332964     0.856726     0.797597  Biso 1.000000     O
    O   1.0     0.417435     0.762245     0.784397  Biso 1.000000     O
    O   1.0     0.521696     0.877001     0.307074  Biso 1.000000     O
    O   1.0     0.752837     0.917190     0.262803  Biso 1.000000     O
    O   1.0     0.630456     0.626499     0.249915  Biso 1.000000     O
    O   1.0     0.620054     0.960209     0.302505  Biso 1.000000     O
    O   1.0     0.856697     0.666993     0.202390  Biso 1.000000     O
    O   1.0     0.762082     0.582676     0.215541  Biso 1.000000     O
    O   1.0     0.478306     0.123019     0.307087  Biso 1.000000     O
    O   1.0     0.247150     0.082820     0.262805  Biso 1.000000     O
    O   1.0     0.369550     0.373492     0.249918  Biso 1.000000     O
    O   1.0     0.379944     0.039813     0.302514  Biso 1.000000     O
    O   1.0     0.143288     0.333008     0.202394  Biso 1.000000     O
    O   1.0     0.237917     0.417315     0.215564  Biso 1.000000     O
   Zn   1.0     0.570194     0.082796     0.804752  Biso 1.000000    Zn
   Zn   1.0     0.429813     0.917225     0.804749  Biso 1.000000    Zn
   Zn   1.0     0.082829     0.429856     0.195242  Biso 1.000000    Zn
   Zn   1.0     0.917155     0.570143     0.195241  Biso 1.000000    Zn
   Zn   1.0     0.929825     0.582760     0.695245  Biso 1.000000    Zn
   Zn   1.0     0.070167     0.417212     0.695242  Biso 1.000000    Zn
   Zn   1.0     0.417142     0.929866     0.304744  Biso 1.000000    Zn
   Zn   1.0     0.582863     0.070153     0.304742  Biso 1.000000    Zn
