#======================================================================

# CRYSTAL DATA

#----------------------------------------------------------------------

data_VESTA_phase_1


_pd_phase_name                         MOF
_cell_length_a                         11.44800
_cell_length_b                         20.65900
_cell_length_c                         20.22200
_cell_angle_alpha                      89.59400
_cell_angle_beta                       90.80500
_cell_angle_gamma                      88.70200
_symmetry_space_group_name_H-M         "P 1"
_symmetry_Int_Tables_number            1

loop_
_symmetry_equiv_pos_as_xyz
   "x, y, z"

loop_
   _atom_site_label
   _atom_site_occupancy
   _atom_site_fract_x
   _atom_site_fract_y
   _atom_site_fract_z
   _atom_site_adp_type
   _atom_site_B_iso_or_equiv
   _atom_site_type_symbol
    H   1.0     0.207851     0.551697     0.243593  Biso 1.000000     H
    H   1.0     0.706869     0.554813     0.244321  Biso 1.000000     H
    H   1.0     0.544536     0.517756     0.367928  Biso 1.000000     H
    H   1.0     0.000000     0.514868     0.369698  Biso 1.000000     H
    H   1.0     0.207163     0.409348     0.191347  Biso 1.000000     H
    H   1.0     0.705929     0.410939     0.186637  Biso 1.000000     H
    H   1.0     0.373219     0.339129     0.204947  Biso 1.000000     H
    H   1.0     0.877581     0.342279     0.203948  Biso 1.000000     H
    H   1.0     0.038694     0.494953     0.227897  Biso 1.000000     H
    H   1.0     0.538521     0.498422     0.225568  Biso 1.000000     H
    H   1.0     0.308420     0.376602     0.313434  Biso 1.000000     H
    H   1.0     0.808308     0.381389     0.309943  Biso 1.000000     H
    H   1.0     0.451958     0.451393     0.789056  Biso 1.000000     H
    H   1.0     0.951923     0.451431     0.789288  Biso 1.000000     H
    H   1.0     0.288124     0.507511     0.669178  Biso 1.000000     H
    H   1.0     0.788595     0.507664     0.669470  Biso 1.000000     H
    H   1.0     0.457790     0.585053     0.731719  Biso 1.000000     H
    H   1.0     0.957812     0.586100     0.732619  Biso 1.000000     H
    H   1.0     0.109707     0.652474     0.734231  Biso 1.000000     H
    H   1.0     0.609747     0.651688     0.734546  Biso 1.000000     H
    H   1.0     0.279114     0.506062     0.809822  Biso 1.000000     H
    H   1.0     0.778853     0.505817     0.810045  Biso 1.000000     H
    H   1.0     0.475172     0.607825     0.608744  Biso 1.000000     H
    H   1.0     0.975514     0.607820     0.609614  Biso 1.000000     H
    H   1.0     0.104699     0.166969     0.080506  Biso 1.000000     H
    H   1.0     0.605803     0.186815     0.072884  Biso 1.000000     H
    H   1.0     0.357799     0.096330     0.990226  Biso 1.000000     H
    H   1.0     0.827968     0.089354     0.986258  Biso 1.000000     H
    H   1.0     0.106434     0.234119     0.936178  Biso 1.000000     H
    H   1.0     0.606670     0.229229     0.934098  Biso 1.000000     H
    H   1.0     0.258124     0.243947     0.867557  Biso 1.000000     H
    H   1.0     0.757141     0.241380     0.865569  Biso 1.000000     H
    H   1.0     0.423581     0.214608     0.007227  Biso 1.000000     H
    H   1.0     0.950994     0.192260     0.013653  Biso 1.000000     H
    H   1.0     0.137577     0.116308    -0.094689  Biso 1.000000     H
    H   1.0     0.632196     0.112732    -0.107144  Biso 1.000000     H
    H   1.0     0.330345     0.766907     0.930714  Biso 1.000000     H
    H   1.0     0.820472     0.773796     0.933276  Biso 1.000000     H
    H   1.0     0.158171     0.886434    -0.031193  Biso 1.000000     H
    H   1.0     0.636711     0.895979    -0.043085  Biso 1.000000     H
    H   1.0     0.331206     0.768303     0.075563  Biso 1.000000     H
    H   1.0     0.832402     0.754635     0.072381  Biso 1.000000     H
    H   1.0     0.485274     0.760690     0.144678  Biso 1.000000     H
    H   1.0     0.988849     0.751473     0.140882  Biso 1.000000     H
    H   1.0     0.164671     0.743781     0.987435  Biso 1.000000     H
    H   1.0     0.652749     0.757654     0.990994  Biso 1.000000     H
    H   1.0     0.345476     0.886396     0.000000  Biso 1.000000     H
    H   1.0     0.848578     0.878159     0.000000  Biso 1.000000     H
    H   1.0     0.120483     0.915795     0.801203  Biso 1.000000     H
    H   1.0     0.619655     0.918453     0.796341  Biso 1.000000     H
    H   1.0     0.384760     0.023866     0.853176  Biso 1.000000     H
    H   1.0     0.883361     0.026821     0.848355  Biso 1.000000     H
    H   1.0     0.172578     0.150089     0.618597  Biso 1.000000     H
    H   1.0     0.673473     0.153229     0.614780  Biso 1.000000     H
    H   1.0     0.016317     0.185543     0.679601  Biso 1.000000     H
    H   1.0     0.515803     0.185587     0.677640  Biso 1.000000     H
    H   1.0     0.268610     0.972113     0.759080  Biso 1.000000     H
    H   1.0     0.773360     0.971924     0.752264  Biso 1.000000     H
    H   1.0     0.178800     0.000000     0.758594  Biso 1.000000     H
    H   1.0     0.679026     0.000000     0.752983  Biso 1.000000     H
    H   1.0     0.436493     0.043319     0.204174  Biso 1.000000     H
    H   1.0     0.949958     0.011309     0.213942  Biso 1.000000     H
    H   1.0     0.100498     0.999928     0.091165  Biso 1.000000     H
    H   1.0     0.604710     0.996051     0.094741  Biso 1.000000     H
    H   1.0     0.406270     0.862990     0.389231  Biso 1.000000     H
    H   1.0     0.894095     0.861490     0.383855  Biso 1.000000     H
    H   1.0     0.243491     0.827052     0.330725  Biso 1.000000     H
    H   1.0     0.744321     0.831096     0.316629  Biso 1.000000     H
    H   1.0     0.134314    -0.019612     0.223576  Biso 1.000000     H
    H   1.0     0.607942    -0.003526     0.223725  Biso 1.000000     H
    H   1.0     0.331334    -0.047978     0.313394  Biso 1.000000     H
    H   1.0     0.996575    -0.048440     0.331678  Biso 1.000000     H
    H   1.0     0.258038     0.359908     0.613494  Biso 1.000000     H
    H   1.0     0.757936     0.360841     0.613824  Biso 1.000000     H
    H   1.0     0.022318     0.447486     0.527694  Biso 1.000000     H
    H   1.0     0.521116     0.447740     0.526908  Biso 1.000000     H
    H   1.0     0.284761     0.172176     0.401514  Biso 1.000000     H
    H   1.0     0.775701     0.176623     0.401783  Biso 1.000000     H
    H   1.0     0.130110     0.217130     0.348755  Biso 1.000000     H
    H   1.0     0.635468     0.229022     0.345165  Biso 1.000000     H
    H   1.0     0.410636     0.342478     0.546854  Biso 1.000000     H
    H   1.0     0.910498     0.342362     0.547314  Biso 1.000000     H
    H   1.0     0.287175     0.319504     0.415256  Biso 1.000000     H
    H   1.0     0.822583     0.322429     0.410848  Biso 1.000000     H
    H   1.0     0.006485     0.663173     0.404180  Biso 1.000000     H
    H   1.0     0.505541     0.664892     0.405354  Biso 1.000000     H
    H   1.0     0.276324     0.590739     0.505614  Biso 1.000000     H
    H   1.0     0.777206     0.590008     0.502837  Biso 1.000000     H
    H   1.0     0.025696     0.875546     0.595347  Biso 1.000000     H
    H   1.0     0.524161     0.874102     0.593877  Biso 1.000000     H
    H   1.0     0.369935     0.825001     0.643741  Biso 1.000000     H
    H   1.0     0.869257     0.825372     0.643853  Biso 1.000000     H
    H   1.0     0.159883     0.694137     0.466623  Biso 1.000000     H
    H   1.0     0.661888     0.694605     0.466756  Biso 1.000000     H
    H   1.0     0.020194     0.730779     0.568733  Biso 1.000000     H
    H   1.0     0.522960     0.729052     0.566551  Biso 1.000000     H
    C   1.0     0.443208     0.589718     0.232037  Biso 1.000000     C
    C   1.0     0.944195     0.586565     0.234758  Biso 1.000000     C
    C   1.0    -0.012047     0.510477     0.328754  Biso 1.000000     C
    C   1.0     0.482816     0.512980     0.325664  Biso 1.000000     C
    C   1.0     0.202239     0.365142     0.222129  Biso 1.000000     C
    C   1.0     0.702823     0.367428     0.218525  Biso 1.000000     C
    C   1.0     0.082743     0.334647     0.209342  Biso 1.000000     C
    C   1.0     0.583707     0.335701     0.207340  Biso 1.000000     C
    C   1.0     0.033465     0.536288     0.261831  Biso 1.000000     C
    C   1.0     0.531688     0.539389     0.259857  Biso 1.000000     C
    C   1.0     0.216937     0.384514     0.295173  Biso 1.000000     C
    C   1.0     0.717189     0.388780     0.291077  Biso 1.000000     C
    C   1.0     0.195201     0.414492     0.794010  Biso 1.000000     C
    C   1.0     0.695017     0.414288     0.793952  Biso 1.000000     C
    C   1.0     0.222467     0.500204     0.708157  Biso 1.000000     C
    C   1.0     0.722719     0.500180     0.708294  Biso 1.000000     C
    C   1.0     0.436554     0.634000     0.712642  Biso 1.000000     C
    C   1.0     0.936311     0.634884     0.713175  Biso 1.000000     C
    C   1.0     0.334407     0.663911     0.751017  Biso 1.000000     C
    C   1.0     0.833959     0.664735     0.751486  Biso 1.000000     C
    C   1.0     0.275931     0.468392     0.771709  Biso 1.000000     C
    C   1.0     0.775877     0.468224     0.771843  Biso 1.000000     C
    C   1.0     0.402867     0.628463     0.638653  Biso 1.000000     C
    C   1.0     0.902978     0.628707     0.639186  Biso 1.000000     C
    C   1.0     0.314731     0.185968     0.085515  Biso 1.000000     C
    C   1.0     0.823207     0.176227     0.085247  Biso 1.000000     C
    C   1.0     0.438349     0.112251     0.015981  Biso 1.000000     C
    C   1.0     0.914688     0.091785     0.011115  Biso 1.000000     C
    C   1.0     0.086409     0.219764     0.885004  Biso 1.000000     C
    C   1.0     0.585287     0.217798     0.882281  Biso 1.000000     C
    C   1.0     0.477833     0.258189     0.859055  Biso 1.000000     C
    C   1.0     0.976878     0.257241     0.859723  Biso 1.000000     C
    C   1.0     0.429603     0.179055     0.048563  Biso 1.000000     C
    C   1.0     0.935120     0.154182     0.051046  Biso 1.000000     C
    C   1.0     0.066213     0.146291     0.882092  Biso 1.000000     C
    C   1.0     0.558696     0.145176     0.876427  Biso 1.000000     C
    C   1.0     0.062606     0.756453     0.897697  Biso 1.000000     C
    C   1.0     0.563373     0.756120     0.896061  Biso 1.000000     C
    C   1.0     0.105791     0.843045     0.980108  Biso 1.000000     C
    C   1.0     0.584110     0.852796     0.967737  Biso 1.000000     C
    C   1.0     0.310564     0.782418     0.126538  Biso 1.000000     C
    C   1.0     0.816356     0.775502     0.121426  Biso 1.000000     C
    C   1.0     0.208843     0.742063     0.151804  Biso 1.000000     C
    C   1.0     0.706530     0.743344     0.150130  Biso 1.000000     C
    C   1.0     0.154101     0.780573     0.948029  Biso 1.000000     C
    C   1.0     0.644320     0.788414     0.946486  Biso 1.000000     C
    C   1.0     0.277509     0.855298     0.127565  Biso 1.000000     C
    C   1.0     0.792630     0.848787     0.112906  Biso 1.000000     C
    C   1.0     0.404878     0.908430     0.790867  Biso 1.000000     C
    C   1.0     0.906421     0.909447     0.790909  Biso 1.000000     C
    C   1.0     0.307085     0.993461     0.859713  Biso 1.000000     C
    C   1.0     0.803108     0.998109     0.852512  Biso 1.000000     C
    C   1.0     0.190015     0.157745     0.671617  Biso 1.000000     C
    C   1.0     0.690006     0.158684     0.668209  Biso 1.000000     C
    C   1.0     0.304110     0.196448     0.677238  Biso 1.000000     C
    C   1.0     0.804651     0.196632     0.676136  Biso 1.000000     C
    C   1.0     0.289013     0.943645     0.804811  Biso 1.000000     C
    C   1.0     0.789818     0.945662     0.799798  Biso 1.000000     C
    C   1.0     0.208373     0.092232     0.706316  Biso 1.000000     C
    C   1.0     0.706864     0.091914     0.700350  Biso 1.000000     C
    C   1.0     0.191430     0.078861     0.231816  Biso 1.000000     C
    C   1.0     0.688263     0.089148     0.230555  Biso 1.000000     C
    C   1.0     0.169122     0.015462     0.126420  Biso 1.000000     C
    C   1.0     0.666590     0.021834     0.127310  Biso 1.000000     C
    C   1.0     0.416914     0.855819     0.335621  Biso 1.000000     C
    C   1.0     0.914298     0.855099     0.330945  Biso 1.000000     C
    C   1.0     0.032949     0.816803     0.329179  Biso 1.000000     C
    C   1.0     0.534662     0.820676     0.325313  Biso 1.000000     C
    C   1.0     0.121623     0.026708     0.197011  Biso 1.000000     C
    C   1.0     0.612480     0.041145     0.194083  Biso 1.000000     C
    C   1.0     0.406882     0.920811     0.298676  Biso 1.000000     C
    C   1.0     0.938256     0.921205     0.301254  Biso 1.000000     C
    C   1.0     0.042921     0.350637     0.620952  Biso 1.000000     C
    C   1.0     0.542896     0.351510     0.620569  Biso 1.000000     C
    C   1.0     0.444816     0.443517     0.559779  Biso 1.000000     C
    C   1.0     0.945602     0.443276     0.560276  Biso 1.000000     C
    C   1.0     0.300749     0.219056     0.377231  Biso 1.000000     C
    C   1.0     0.803720     0.221194     0.376902  Biso 1.000000     C
    C   1.0     0.413632     0.208689     0.336412  Biso 1.000000     C
    C   1.0     0.915243     0.202239     0.338167  Biso 1.000000     C
    C   1.0     0.427245     0.375554     0.588756  Biso 1.000000     C
    C   1.0     0.927571     0.375346     0.589241  Biso 1.000000     C
    C   1.0     0.318180     0.270059     0.430510  Biso 1.000000     C
    C   1.0     0.831774     0.271583     0.429279  Biso 1.000000     C
    C   1.0     0.290994     0.671391     0.398186  Biso 1.000000     C
    C   1.0     0.790660     0.672633     0.396751  Biso 1.000000     C
    C   1.0     0.195742     0.592111     0.474680  Biso 1.000000     C
    C   1.0     0.696042     0.592290     0.472379  Biso 1.000000     C
    C   1.0     0.042358     0.826398     0.615215  Biso 1.000000     C
    C   1.0     0.541688     0.824796     0.613099  Biso 1.000000     C
    C   1.0     0.158457     0.828011     0.655548  Biso 1.000000     C
    C   1.0     0.658068     0.826560     0.653312  Biso 1.000000     C
    C   1.0     0.177481     0.653657     0.432185  Biso 1.000000     C
    C   1.0     0.677740     0.654777     0.431342  Biso 1.000000     C
    C   1.0     0.057679     0.778957     0.557989  Biso 1.000000     C
    C   1.0     0.556778     0.778016     0.555412  Biso 1.000000     C
    O   1.0     0.474639     0.650177     0.238801  Biso 1.000000     O
    O   1.0     0.975584     0.646957     0.241676  Biso 1.000000     O
    O   1.0     0.348991     0.572554     0.208524  Biso 1.000000     O
    O   1.0     0.849607     0.569427     0.211653  Biso 1.000000     O
    O   1.0     0.145436     0.563830     0.274852  Biso 1.000000     O
    O   1.0     0.642938     0.566874     0.274707  Biso 1.000000     O
    O   1.0    -0.109178     0.489398     0.335784  Biso 1.000000     O
    O   1.0     0.385722     0.491217     0.330546  Biso 1.000000     O
    O   1.0     0.140096     0.405405     0.330343  Biso 1.000000     O
    O   1.0     0.639929     0.411162     0.324967  Biso 1.000000     O
    O   1.0     0.291396     0.319346     0.205595  Biso 1.000000     O
    O   1.0     0.794107     0.322473     0.202493  Biso 1.000000     O
    O   1.0     0.080645     0.272829     0.205098  Biso 1.000000     O
    O   1.0     0.585652     0.273387     0.205796  Biso 1.000000     O
    O   1.0     0.494913     0.371945     0.202941  Biso 1.000000     O
    O   1.0     0.995222     0.372461     0.205571  Biso 1.000000     O
    O   1.0     0.233930     0.355857     0.780450  Biso 1.000000     O
    O   1.0     0.733599     0.355623     0.780360  Biso 1.000000     O
    O   1.0     0.100438     0.427826     0.819330  Biso 1.000000     O
    O   1.0     0.600248     0.427733     0.819216  Biso 1.000000     O
    O   1.0     0.390497     0.444653     0.755061  Biso 1.000000     O
    O   1.0     0.890515     0.444541     0.755311  Biso 1.000000     O
    O   1.0     0.119312     0.513384     0.700293  Biso 1.000000     O
    O   1.0     0.619583     0.513337     0.700271  Biso 1.000000     O
    O   1.0     0.310281     0.647008     0.614389  Biso 1.000000     O
    O   1.0     0.810546     0.647040     0.614558  Biso 1.000000     O
    O   1.0     0.038155     0.674218     0.713891  Biso 1.000000     O
    O   1.0     0.538522     0.673127     0.713518  Biso 1.000000     O
    O   1.0     0.346602     0.723414     0.769487  Biso 1.000000     O
    O   1.0     0.845471     0.724351     0.769849  Biso 1.000000     O
    O   1.0     0.246641     0.630555     0.759101  Biso 1.000000     O
    O   1.0     0.746790     0.630937     0.759706  Biso 1.000000     O
    O   1.0     0.324169     0.186088     0.149306  Biso 1.000000     O
    O   1.0     0.830197     0.181542     0.149099  Biso 1.000000     O
    O   1.0     0.222116     0.189147     0.052275  Biso 1.000000     O
    O   1.0     0.734642     0.186682     0.049997  Biso 1.000000     O
    O   1.0     0.029307     0.147149     0.096845  Biso 1.000000     O
    O   1.0     0.523904     0.191808     0.092204  Biso 1.000000     O
    O   1.0     0.529058     0.080622     0.016698  Biso 1.000000     O
    O   1.0     0.990000     0.050054     0.005761  Biso 1.000000     O
    O   1.0    -0.015523     0.122397     0.852870  Biso 1.000000     O
    O   1.0     0.468981     0.124715     0.852383  Biso 1.000000     O
    O   1.0     0.186052     0.227814     0.843758  Biso 1.000000     O
    O   1.0     0.685169     0.225555     0.841302  Biso 1.000000     O
    O   1.0     0.485438     0.286213     0.801796  Biso 1.000000     O
    O   1.0     0.985044     0.285953     0.802764  Biso 1.000000     O
    O   1.0     0.390447     0.258298     0.895044  Biso 1.000000     O
    O   1.0     0.888336     0.255088     0.894547  Biso 1.000000     O
    O   1.0     0.096572     0.758243     0.836191  Biso 1.000000     O
    O   1.0     0.599333     0.758124     0.834791  Biso 1.000000     O
    O   1.0     0.470162     0.733140     0.913842  Biso 1.000000     O
    O   1.0     0.966267     0.738924     0.916578  Biso 1.000000     O
    O   1.0     0.262506     0.795047     0.917196  Biso 1.000000     O
    O   1.0     0.755638     0.803351     0.918952  Biso 1.000000     O
    O   1.0     0.019227     0.844680     0.000000  Biso 1.000000     O
    O   1.0     0.487527     0.855424     0.991665  Biso 1.000000     O
    O   1.0     0.189780     0.877565     0.152874  Biso 1.000000     O
    O   1.0     0.720125     0.872384     0.075083  Biso 1.000000     O
    O   1.0     0.412862     0.777459     0.168023  Biso 1.000000     O
    O   1.0     0.915542     0.766624     0.163912  Biso 1.000000     O
    O   1.0     0.220205     0.719225     0.211654  Biso 1.000000     O
    O   1.0     0.719311     0.719128     0.209198  Biso 1.000000     O
    O   1.0     0.122329     0.736500     0.114698  Biso 1.000000     O
    O   1.0     0.615338     0.744556     0.116003  Biso 1.000000     O
    O   1.0     0.404593     0.845576     0.794797  Biso 1.000000     O
    O   1.0     0.904724     0.846766     0.796924  Biso 1.000000     O
    O   1.0    -0.005318     0.941528     0.779502  Biso 1.000000     O
    O   1.0     0.491101     0.941545     0.777762  Biso 1.000000     O
    O   1.0     0.199308     0.899778     0.819553  Biso 1.000000     O
    O   1.0     0.698931     0.902491     0.814138  Biso 1.000000     O
    O   1.0     0.240063     0.000000     0.905416  Biso 1.000000     O
    O   1.0     0.729585     0.000000     0.894254  Biso 1.000000     O
    O   1.0     0.248951     0.043987     0.680495  Biso 1.000000     O
    O   1.0     0.744785     0.044122     0.672530  Biso 1.000000     O
    O   1.0     0.096287     0.191533     0.702614  Biso 1.000000     O
    O   1.0     0.596355     0.191739     0.700034  Biso 1.000000     O
    O   1.0     0.295699     0.250579     0.708397  Biso 1.000000     O
    O   1.0     0.795938     0.250500     0.707747  Biso 1.000000     O
    O   1.0     0.393755     0.172264     0.652478  Biso 1.000000     O
    O   1.0     0.895043     0.172174     0.652546  Biso 1.000000     O
    O   1.0     0.139703     0.136454     0.233368  Biso 1.000000     O
    O   1.0     0.644402     0.148488     0.233466  Biso 1.000000     O
    O   1.0     0.290682     0.066411     0.253350  Biso 1.000000     O
    O   1.0     0.785203     0.072464     0.252523  Biso 1.000000     O
    O   1.0     0.496997     0.066942     0.180136  Biso 1.000000     O
    O   1.0     0.999850     0.043932     0.191782  Biso 1.000000     O
    O   1.0     0.269691     0.024202     0.110954  Biso 1.000000     O
    O   1.0     0.765618     0.033541     0.111164  Biso 1.000000     O
    O   1.0     0.468507     0.936133     0.252885  Biso 1.000000     O
    O   1.0     0.900458     0.939241     0.247240  Biso 1.000000     O
    O   1.0     0.323094     0.819343     0.308441  Biso 1.000000     O
    O   1.0     0.825946     0.822186     0.296839  Biso 1.000000     O
    O   1.0     0.030396     0.760991     0.302193  Biso 1.000000     O
    O   1.0     0.530946     0.763716     0.299596  Biso 1.000000     O
    O   1.0     0.120062     0.844389     0.352741  Biso 1.000000     O
    O   1.0     0.624355     0.849624     0.342453  Biso 1.000000     O
    O   1.0     0.040079     0.335941     0.683550  Biso 1.000000     O
    O   1.0     0.539904     0.336149     0.683011  Biso 1.000000     O
    O   1.0     0.130949     0.347515     0.585718  Biso 1.000000     O
    O   1.0     0.631258     0.349579     0.585573  Biso 1.000000     O
    O   1.0     0.334336     0.374501     0.634452  Biso 1.000000     O
    O   1.0     0.834688     0.374580     0.634964  Biso 1.000000     O
    O   1.0     0.380100     0.489248     0.571780  Biso 1.000000     O
    O   1.0     0.880616     0.488999     0.571903  Biso 1.000000     O
    O   1.0     0.359803     0.258523     0.485118  Biso 1.000000     O
    O   1.0     0.859577     0.258586     0.486177  Biso 1.000000     O
    O   1.0     0.205109     0.238736     0.335106  Biso 1.000000     O
    O   1.0     0.714558     0.247113     0.333662  Biso 1.000000     O
    O   1.0     0.395445     0.202809     0.273572  Biso 1.000000     O
    O   1.0     0.902141     0.199245     0.274672  Biso 1.000000     O
    O   1.0     0.007009     0.191436     0.370332  Biso 1.000000     O
    O   1.0     0.508962     0.206031     0.366408  Biso 1.000000     O
    O   1.0     0.285881     0.677823     0.334115  Biso 1.000000     O
    O   1.0     0.783820     0.680413     0.332909  Biso 1.000000     O
    O   1.0     0.380087     0.677996     0.433206  Biso 1.000000     O
    O   1.0     0.880732     0.678184     0.431163  Biso 1.000000     O
    O   1.0     0.084434     0.647552     0.385826  Biso 1.000000     O
    O   1.0     0.583227     0.650347     0.385711  Biso 1.000000     O
    O   1.0     0.124688     0.549301     0.475143  Biso 1.000000     O
    O   1.0     0.624501     0.549730     0.472385  Biso 1.000000     O
    O   1.0     0.104875     0.791406     0.506126  Biso 1.000000     O
    O   1.0     0.600071     0.791641     0.502731  Biso 1.000000     O
    O   1.0     0.449684     0.802665     0.653326  Biso 1.000000     O
    O   1.0     0.950130     0.805310     0.655783  Biso 1.000000     O
    O   1.0     0.154459     0.805088     0.714903  Biso 1.000000     O
    O   1.0     0.654287     0.805096     0.713173  Biso 1.000000     O
    O   1.0     0.245630     0.849810     0.627638  Biso 1.000000     O
    O   1.0     0.745382     0.847370     0.624682  Biso 1.000000     O
   Zn   1.0     0.129845     0.666714     0.286310  Biso 1.000000    Zn
   Zn   1.0     0.626092     0.670036     0.286234  Biso 1.000000    Zn
   Zn   1.0     0.384763     0.341708     0.730648  Biso 1.000000    Zn
   Zn   1.0     0.884875     0.341624     0.730917  Biso 1.000000    Zn
   Zn   1.0    -0.025877     0.144098     0.197341  Biso 1.000000    Zn
   Zn   1.0     0.489841     0.172599     0.191709  Biso 1.000000    Zn
   Zn   1.0     0.249552     0.800582     0.811221  Biso 1.000000    Zn
   Zn   1.0     0.748845     0.803090     0.811251  Biso 1.000000    Zn
   Zn   1.0     0.374994     0.732969     0.261052  Biso 1.000000    Zn
   Zn   1.0     0.875760     0.730640     0.258346  Biso 1.000000    Zn
   Zn   1.0     0.139318     0.275517     0.752610  Biso 1.000000    Zn
   Zn   1.0     0.639210     0.275385     0.750769  Biso 1.000000    Zn
   Zn   1.0     0.230444     0.224231     0.230508  Biso 1.000000    Zn
   Zn   1.0     0.745675     0.230231     0.229795  Biso 1.000000    Zn
   Zn   1.0    -0.000848     0.769537     0.749605  Biso 1.000000    Zn
   Zn   1.0     0.499825     0.769114     0.747690  Biso 1.000000    Zn
