#======================================================================

# CRYSTAL DATA

#----------------------------------------------------------------------

data_VESTA_phase_1


_pd_phase_name                         MOF
_cell_length_a                         15.14600
_cell_length_b                         14.63700
_cell_length_c                         16.08200
_cell_angle_alpha                      90.10100
_cell_angle_beta                       86.07200
_cell_angle_gamma                      90.02500
_symmetry_space_group_name_H-M         "P 1"
_symmetry_Int_Tables_number            1

loop_
_symmetry_equiv_pos_as_xyz
   "x, y, z"

loop_
   _atom_site_label
   _atom_site_occupancy
   _atom_site_fract_x
   _atom_site_fract_y
   _atom_site_fract_z
   _atom_site_adp_type
   _atom_site_B_iso_or_equiv
   _atom_site_type_symbol
    H   1.0     0.087723     0.262621     0.126426  Biso 1.000000     H
    H   1.0     0.375199     0.786739     0.847598  Biso 1.000000     H
    H   1.0     0.714421     0.248472     0.865824  Biso 1.000000     H
    H   1.0     0.654331     0.403876     0.854398  Biso 1.000000     H
    H   1.0     0.891222     0.472808     0.700056  Biso 1.000000     H
    H   1.0     0.941766     0.315668     0.718710  Biso 1.000000     H
    H   1.0     0.541643     0.670776     0.773533  Biso 1.000000     H
    H   1.0     0.594990     0.516489     0.802747  Biso 1.000000     H
    H   1.0     0.858472     0.607719     0.717104  Biso 1.000000     H
    H   1.0     0.793450     0.756322     0.686429  Biso 1.000000     H
    H   1.0     0.912666     0.764931     0.373749  Biso 1.000000     H
    H   1.0     0.619430     0.290298     0.655413  Biso 1.000000     H
    H   1.0     0.277855     0.755774     0.629963  Biso 1.000000     H
    H   1.0     0.339687     0.910620     0.642953  Biso 1.000000     H
    H   1.0     0.111520     0.975773     0.810425  Biso 1.000000     H
    H   1.0     0.058741     0.819304     0.789846  Biso 1.000000     H
    H   1.0     0.457059     0.174670     0.732026  Biso 1.000000     H
    H   1.0     0.403995     0.019364     0.704525  Biso 1.000000     H
    H   1.0     0.139099     0.112977     0.782079  Biso 1.000000     H
    H   1.0     0.203471     0.263018     0.810599  Biso 1.000000     H
    H   1.0     0.909419     0.734337     0.876989  Biso 1.000000     H
    H   1.0     0.623182     0.208617     0.151912  Biso 1.000000     H
    H   1.0     0.284109     0.750113     0.136760  Biso 1.000000     H
    H   1.0     0.345153     0.595332     0.149548  Biso 1.000000     H
    H   1.0     0.107273     0.525402     0.302080  Biso 1.000000     H
    H   1.0     0.055853     0.681976     0.282278  Biso 1.000000     H
    H   1.0     0.456437     0.326612     0.226684  Biso 1.000000     H
    H   1.0     0.403868     0.481842     0.199885  Biso 1.000000     H
    H   1.0     0.140083     0.390946     0.284946  Biso 1.000000     H
    H   1.0     0.204286     0.241260     0.312855  Biso 1.000000     H
    H   1.0     0.085589     0.234601     0.625272  Biso 1.000000     H
    H   1.0     0.376391     0.708890     0.347433  Biso 1.000000     H
    H   1.0     0.718014     0.243723     0.371575  Biso 1.000000     H
    H   1.0     0.656391     0.088935     0.358013  Biso 1.000000     H
    H   1.0     0.885178     0.024388     0.191090  Biso 1.000000     H
    H   1.0     0.937756     0.180706     0.212284  Biso 1.000000     H
    H   1.0     0.539825     0.824474     0.270267  Biso 1.000000     H
    H   1.0     0.592680     0.979938     0.297348  Biso 1.000000     H
    H   1.0     0.857388     0.887073     0.218165  Biso 1.000000     H
    H   1.0     0.793187     0.736777     0.190280  Biso 1.000000     H
    C   1.0     0.023803     0.577302     0.096566  Biso 1.000000     C
    C   1.0     0.071870     0.487524     0.077659  Biso 1.000000     C
    C   1.0     0.049935     0.404368     0.116801  Biso 1.000000     C
    C   1.0     0.972119     0.393307     0.178451  Biso 1.000000     C
    C   1.0     0.102560     0.328128     0.096425  Biso 1.000000     C
    C   1.0     0.174464     0.334101     0.036939  Biso 1.000000     C
    C   1.0     0.229928     0.249260     0.019470  Biso 1.000000     C
    C   1.0     0.189717     0.418861     0.997863  Biso 1.000000     C
    C   1.0     0.257527     0.438281     0.926730  Biso 1.000000     C
    C   1.0     0.481646     0.083016     0.906543  Biso 1.000000     C
    C   1.0     0.424086     0.998093     0.919270  Biso 1.000000     C
    C   1.0     0.434245     0.917648     0.872168  Biso 1.000000     C
    C   1.0     0.512447     0.899904     0.812650  Biso 1.000000     C
    C   1.0     0.370308     0.849189     0.884727  Biso 1.000000     C
    C   1.0     0.300263     0.858710     0.945813  Biso 1.000000     C
    C   1.0     0.227563     0.787432     0.950450  Biso 1.000000     C
    C   1.0     0.299332     0.937815     0.995337  Biso 1.000000     C
    C   1.0     0.239525     0.955016     0.073037  Biso 1.000000     C
    C   1.0     0.750816     0.300330     0.829245  Biso 1.000000     C
    C   1.0     0.718123     0.388054     0.822511  Biso 1.000000     C
    C   1.0     0.767131     0.453843     0.775224  Biso 1.000000     C
    C   1.0     0.849353     0.426644     0.738072  Biso 1.000000     C
    C   1.0     0.878327     0.337668     0.747477  Biso 1.000000     C
    C   1.0     0.611579     0.654395     0.763097  Biso 1.000000     C
    C   1.0     0.642565     0.567787     0.779854  Biso 1.000000     C
    C   1.0     0.732552     0.547040     0.762797  Biso 1.000000     C
    C   1.0     0.787749     0.617368     0.730546  Biso 1.000000     C
    C   1.0     0.752201     0.702093     0.714296  Biso 1.000000     C
    C   1.0     0.970746     0.080470     0.406614  Biso 1.000000     C
    C   1.0     0.924744     0.989548     0.425190  Biso 1.000000     C
    C   1.0     0.948081     0.907206     0.384932  Biso 1.000000     C
    C   1.0     0.025215     0.897604     0.322261  Biso 1.000000     C
    C   1.0     0.896832     0.829866     0.404581  Biso 1.000000     C
    C   1.0     0.824798     0.834048     0.464031  Biso 1.000000     C
    C   1.0     0.770575     0.748155     0.479739  Biso 1.000000     C
    C   1.0     0.808122     0.918010     0.504383  Biso 1.000000     C
    C   1.0     0.739467     0.935540     0.575484  Biso 1.000000     C
    C   1.0     0.519269     0.587687     0.592945  Biso 1.000000     C
    C   1.0     0.574259     0.500877     0.580493  Biso 1.000000     C
    C   1.0     0.562448     0.421365     0.628492  Biso 1.000000     C
    C   1.0     0.484192     0.405590     0.688327  Biso 1.000000     C
    C   1.0     0.625463     0.351827     0.617295  Biso 1.000000     C
    C   1.0     0.696117     0.359202     0.556619  Biso 1.000000     C
    C   1.0     0.768181     0.287280     0.554199  Biso 1.000000     C
    C   1.0     0.698272     0.437108     0.505722  Biso 1.000000     C
    C   1.0     0.758777     0.451731     0.428066  Biso 1.000000     C
    C   1.0     0.243777     0.806651     0.669663  Biso 1.000000     C
    C   1.0     0.277453     0.893890     0.677323  Biso 1.000000     C
    C   1.0     0.230948     0.958452     0.728308  Biso 1.000000     C
    C   1.0     0.150695     0.930515     0.768922  Biso 1.000000     C
    C   1.0     0.120586     0.842050     0.758417  Biso 1.000000     C
    C   1.0     0.386871     0.158685     0.740891  Biso 1.000000     C
    C   1.0     0.356215     0.071551     0.725195  Biso 1.000000     C
    C   1.0     0.265826     0.051558     0.740412  Biso 1.000000     C
    C   1.0     0.210034     0.122629     0.770049  Biso 1.000000     C
    C   1.0     0.245286     0.207879     0.785090  Biso 1.000000     C
    C   1.0     0.975064     0.420423     0.906844  Biso 1.000000     C
    C   1.0     0.926533     0.509789     0.926181  Biso 1.000000     C
    C   1.0     0.948277     0.593004     0.887075  Biso 1.000000     C
    C   1.0     0.026066     0.604389     0.825411  Biso 1.000000     C
    C   1.0     0.895025     0.668819     0.907130  Biso 1.000000     C
    C   1.0     0.822928     0.662460     0.966394  Biso 1.000000     C
    C   1.0     0.767127     0.747281     0.982823  Biso 1.000000     C
    C   1.0     0.808092     0.577782     0.005777  Biso 1.000000     C
    C   1.0     0.740314     0.557987     0.077016  Biso 1.000000     C
    C   1.0     0.515928     0.913051     0.092019  Biso 1.000000     C
    C   1.0     0.573563    -0.002113     0.079280  Biso 1.000000     C
    C   1.0     0.563534     0.078208     0.126597  Biso 1.000000     C
    C   1.0     0.485092     0.096002     0.185834  Biso 1.000000     C
    C   1.0     0.627838     0.146391     0.114458  Biso 1.000000     C
    C   1.0     0.697990     0.136854     0.053447  Biso 1.000000     C
    C   1.0     0.771548     0.207334     0.049794  Biso 1.000000     C
    C   1.0     0.698478     0.058074     0.003440  Biso 1.000000     C
    C   1.0     0.757816     0.041298     0.925347  Biso 1.000000     C
    C   1.0     0.247664     0.698166     0.173190  Biso 1.000000     C
    C   1.0     0.280900     0.610772     0.180673  Biso 1.000000     C
    C   1.0     0.231729     0.544781     0.227541  Biso 1.000000     C
    C   1.0     0.149195     0.571668     0.264228  Biso 1.000000     C
    C   1.0     0.119683     0.660333     0.254133  Biso 1.000000     C
    C   1.0     0.386604     0.343321     0.237487  Biso 1.000000     C
    C   1.0     0.356069     0.430452     0.222103  Biso 1.000000     C
    C   1.0     0.266175     0.451450     0.239460  Biso 1.000000     C
    C   1.0     0.210691     0.381019     0.270993  Biso 1.000000     C
    C   1.0     0.245773     0.295726     0.285751  Biso 1.000000     C
    C   1.0     0.026071     0.919315     0.593269  Biso 1.000000     C
    C   1.0     0.072125     0.010088     0.574031  Biso 1.000000     C
    C   1.0     0.049114     0.092626     0.613985  Biso 1.000000     C
    C   1.0     0.972179     0.101580     0.676858  Biso 1.000000     C
    C   1.0     0.100959     0.169580     0.594405  Biso 1.000000     C
    C   1.0     0.173149     0.164902     0.535047  Biso 1.000000     C
    C   1.0     0.228181     0.250487     0.520105  Biso 1.000000     C
    C   1.0     0.189112     0.080836     0.494597  Biso 1.000000     C
    C   1.0     0.257243     0.062194     0.423217  Biso 1.000000     C
    C   1.0     0.478050     0.412279     0.410896  Biso 1.000000     C
    C   1.0     0.422337     0.498680     0.422755  Biso 1.000000     C
    C   1.0     0.433856     0.578075     0.374535  Biso 1.000000     C
    C   1.0     0.512162     0.594142     0.314829  Biso 1.000000     C
    C   1.0     0.370559     0.647342     0.385538  Biso 1.000000     C
    C   1.0     0.299749     0.639687     0.446003  Biso 1.000000     C
    C   1.0     0.227387     0.711155     0.447903  Biso 1.000000     C
    C   1.0     0.297693     0.561893     0.497011  Biso 1.000000     C
    C   1.0     0.236996     0.547049     0.574544  Biso 1.000000     C
    C   1.0     0.752303     0.193001     0.331864  Biso 1.000000     C
    C   1.0     0.718725     0.105763     0.323868  Biso 1.000000     C
    C   1.0     0.765474     0.041305     0.272957  Biso 1.000000     C
    C   1.0     0.845808     0.069433     0.232627  Biso 1.000000     C
    C   1.0     0.875823     0.157887     0.243487  Biso 1.000000     C
    C   1.0     0.609928     0.840680     0.260983  Biso 1.000000     C
    C   1.0     0.640490     0.927874     0.276487  Biso 1.000000     C
    C   1.0     0.730769     0.948131     0.260771  Biso 1.000000     C
    C   1.0     0.786549     0.877220     0.230746  Biso 1.000000     C
    C   1.0     0.751420     0.791834     0.215991  Biso 1.000000     C
    N   1.0     0.139585     0.491640     0.019961  Biso 1.000000     N
    N   1.0     0.358563     0.000000     0.979018  Biso 1.000000     N
    N   1.0     0.829927     0.274872     0.791643  Biso 1.000000     N
    N   1.0     0.665146     0.720496     0.729667  Biso 1.000000     N
    N   1.0     0.857205     0.991842     0.483235  Biso 1.000000     N
    N   1.0     0.639956     0.504964     0.520730  Biso 1.000000     N
    N   1.0     0.166170     0.780598     0.709910  Biso 1.000000     N
    N   1.0     0.332585     0.225880     0.771195  Biso 1.000000     N
    N   1.0     0.858764     0.505259     0.983801  Biso 1.000000     N
    N   1.0     0.638979    -0.008467     0.019424  Biso 1.000000     N
    N   1.0     0.167882     0.723098     0.209714  Biso 1.000000     N
    N   1.0     0.332642     0.276909     0.269697  Biso 1.000000     N
    N   1.0     0.139561     0.007406     0.515988  Biso 1.000000     N
    N   1.0     0.356456     0.494393     0.482330  Biso 1.000000     N
    N   1.0     0.830080     0.219187     0.292023  Biso 1.000000     N
    N   1.0     0.664230     0.773604     0.230432  Biso 1.000000     N
    O   1.0     0.963188     0.576810     0.152985  Biso 1.000000     O
    O   1.0     0.052078     0.645794     0.052028  Biso 1.000000     O
    O   1.0     0.894766     0.378474     0.155916  Biso 1.000000     O
    O   1.0     0.988027     0.386894     0.255993  Biso 1.000000     O
    O   1.0     0.207494     0.192023     0.968192  Biso 1.000000     O
    O   1.0     0.295871     0.242312     0.066479  Biso 1.000000     O
    O   1.0     0.303870     0.367343     0.902964  Biso 1.000000     O
    O   1.0     0.262732     0.516039     0.896030  Biso 1.000000     O
    O   1.0     0.463117     0.148792     0.958242  Biso 1.000000     O
    O   1.0     0.539347     0.082028     0.847518  Biso 1.000000     O
    O   1.0     0.500599     0.890754     0.734715  Biso 1.000000     O
    O   1.0     0.588323     0.882502     0.838416  Biso 1.000000     O
    O   1.0     0.154063     0.809080     0.927345  Biso 1.000000     O
    O   1.0     0.251779     0.706768     0.973038  Biso 1.000000     O
    O   1.0     0.240992     0.030331     0.108362  Biso 1.000000     O
    O   1.0     0.194237     0.883372     0.096584  Biso 1.000000     O
    O   1.0     0.030893     0.081407     0.349770  Biso 1.000000     O
    O   1.0     0.941322     0.148273     0.451671  Biso 1.000000     O
    O   1.0     0.103421     0.883494     0.343496  Biso 1.000000     O
    O   1.0     0.008843     0.890750     0.245031  Biso 1.000000     O
    O   1.0     0.792230     0.691475     0.531629  Biso 1.000000     O
    O   1.0     0.706569     0.740036     0.430554  Biso 1.000000     O
    O   1.0     0.693182     0.863976     0.597488  Biso 1.000000     O
    O   1.0     0.733649     0.012780     0.607463  Biso 1.000000     O
    O   1.0     0.539198     0.652331     0.540611  Biso 1.000000     O
    O   1.0     0.462510     0.589357     0.652727  Biso 1.000000     O
    O   1.0     0.496604     0.395220     0.765983  Biso 1.000000     O
    O   1.0     0.407281     0.390747     0.663487  Biso 1.000000     O
    O   1.0     0.840974     0.308758     0.579122  Biso 1.000000     O
    O   1.0     0.744109     0.206480     0.531490  Biso 1.000000     O
    O   1.0     0.757917     0.525891     0.390909  Biso 1.000000     O
    O   1.0     0.804089     0.379336     0.406543  Biso 1.000000     O
    O   1.0     0.035209     0.421681     0.849991  Biso 1.000000     O
    O   1.0     0.947791     0.351561     0.951416  Biso 1.000000     O
    O   1.0     0.103769     0.617784     0.847490  Biso 1.000000     O
    O   1.0     0.009461     0.612618     0.748123  Biso 1.000000     O
    O   1.0     0.788442     0.804459     0.034609  Biso 1.000000     O
    O   1.0     0.702685     0.754239     0.934029  Biso 1.000000     O
    O   1.0     0.693049     0.628483     0.100498  Biso 1.000000     O
    O   1.0     0.736194     0.480227     0.107755  Biso 1.000000     O
    O   1.0     0.533586     0.847610     0.039749  Biso 1.000000     O
    O   1.0     0.458980     0.913846     0.151709  Biso 1.000000     O
    O   1.0     0.496400     0.105416     0.263838  Biso 1.000000     O
    O   1.0     0.409289     0.113290     0.159710  Biso 1.000000     O
    O   1.0     0.844598     0.183877     0.072705  Biso 1.000000     O
    O   1.0     0.748371     0.288830     0.028380  Biso 1.000000     O
    O   1.0     0.755621     0.966424     0.889295  Biso 1.000000     O
    O   1.0     0.803481     0.112835     0.902192  Biso 1.000000     O
    O   1.0     0.966481     0.918696     0.650648  Biso 1.000000     O
    O   1.0     0.054994     0.851383     0.548215  Biso 1.000000     O
    O   1.0     0.893306     0.113805     0.656275  Biso 1.000000     O
    O   1.0     0.988873     0.109125     0.753863  Biso 1.000000     O
    O   1.0     0.207424     0.307872     0.468444  Biso 1.000000     O
    O   1.0     0.291708     0.257862     0.569934  Biso 1.000000     O
    O   1.0     0.303342     0.133258     0.399675  Biso 1.000000     O
    O   1.0     0.262716     0.984381     0.392317  Biso 1.000000     O
    O   1.0     0.459340     0.348326     0.464232  Biso 1.000000     O
    O   1.0     0.534350     0.410536     0.350723  Biso 1.000000     O
    O   1.0     0.499929     0.604448     0.237116  Biso 1.000000     O
    O   1.0     0.588893     0.609322     0.339897  Biso 1.000000     O
    O   1.0     0.154367     0.688531     0.424257  Biso 1.000000     O
    O   1.0     0.251711     0.792560     0.468714  Biso 1.000000     O
    O   1.0     0.237519     0.472578     0.611272  Biso 1.000000     O
    O   1.0     0.192075     0.619510     0.596549  Biso 1.000000     O
   Zn   1.0     0.155435     0.617767     0.964448  Biso 1.000000    Zn
   Zn   1.0     0.621591     0.844084     0.697917  Biso 1.000000    Zn
   Zn   1.0     0.641422     0.871025     0.955035  Biso 1.000000    Zn
   Zn   1.0     0.873662     0.347221     0.308625  Biso 1.000000    Zn
   Zn   1.0     0.840148     0.117309     0.540689  Biso 1.000000    Zn
   Zn   1.0     0.374530     0.351036     0.801862  Biso 1.000000    Zn
   Zn   1.0     0.351698     0.375115     0.548125  Biso 1.000000    Zn
   Zn   1.0     0.125657     0.851599     0.194878  Biso 1.000000    Zn
   Zn   1.0     0.844048     0.378408     0.038589  Biso 1.000000    Zn
   Zn   1.0     0.374775     0.151975     0.298809  Biso 1.000000    Zn
   Zn   1.0     0.355363     0.125237     0.042570  Biso 1.000000    Zn
   Zn   1.0     0.122910     0.652448     0.694568  Biso 1.000000    Zn
   Zn   1.0     0.156189     0.882027     0.458988  Biso 1.000000    Zn
   Zn   1.0     0.622164     0.648377     0.201193  Biso 1.000000    Zn
   Zn   1.0     0.644916     0.624501     0.455097  Biso 1.000000    Zn
   Zn   1.0     0.870344     0.144949     0.802810  Biso 1.000000    Zn
