#======================================================================

# CRYSTAL DATA

#----------------------------------------------------------------------

data_VESTA_phase_1


_pd_phase_name                         MOF
_cell_length_a                         16.27600
_cell_length_b                         16.27300
_cell_length_c                         16.85000
_cell_angle_alpha                      118.73800
_cell_angle_beta                       118.75600
_cell_angle_gamma                      90.12900
_symmetry_space_group_name_H-M         "P 1"
_symmetry_Int_Tables_number            1

loop_
_symmetry_equiv_pos_as_xyz
   "x, y, z"

loop_
   _atom_site_label
   _atom_site_occupancy
   _atom_site_fract_x
   _atom_site_fract_y
   _atom_site_fract_z
   _atom_site_adp_type
   _atom_site_B_iso_or_equiv
   _atom_site_type_symbol
    H   1.0     0.166071     0.564088     0.349392  Biso 1.000000     H
    H   1.0     0.276332     0.655047     0.574428  Biso 1.000000     H
    H   1.0     0.094099     0.595444     0.637477  Biso 1.000000     H
    H   1.0     0.183020     0.705974     0.697594  Biso 1.000000     H
    H   1.0     0.226806     0.509566     0.653736  Biso 1.000000     H
    H   1.0     0.245119     0.603117     0.777103  Biso 1.000000     H
    H   1.0     0.787867     0.319941     0.347246  Biso 1.000000     H
    H   1.0     0.773186     0.507512     0.460674  Biso 1.000000     H
    H   1.0     0.000000     0.690267     0.556019  Biso 1.000000     H
    H   1.0     0.934682     0.682337     0.611862  Biso 1.000000     H
    H   1.0     0.782643     0.675260     0.465550  Biso 1.000000     H
    H   1.0     0.838279     0.666771     0.395033  Biso 1.000000     H
    H   1.0     0.183634     0.785978     0.349831  Biso 1.000000     H
    H   1.0     0.298585     0.919753     0.574796  Biso 1.000000     H
    H   1.0     0.543555     0.041376     0.636837  Biso 1.000000     H
    H   1.0     0.514899     0.991177     0.697341  Biso 1.000000     H
    H   1.0     0.427448     0.143813     0.653388  Biso 1.000000     H
    H   1.0     0.532310     0.173286     0.776730  Biso 1.000000     H
    H   1.0     0.559313     0.026953     0.346351  Biso 1.000000     H
    H   1.0     0.687573     0.953084     0.460189  Biso 1.000000     H
    H   1.0     0.555540     0.865844     0.556219  Biso 1.000000     H
    H   1.0     0.677463     0.929100     0.611259  Biso 1.000000     H
    H   1.0     0.682617     0.789576     0.464656  Biso 1.000000     H
    H   1.0     0.556575     0.728125     0.394763  Biso 1.000000     H
    H   1.0     0.436794     0.816670     0.650719  Biso 1.000000     H
    H   1.0     0.345463     0.701883     0.425667  Biso 1.000000     H
    H   1.0     0.404405     0.456897     0.363090  Biso 1.000000     H
    H   1.0     0.294035     0.485665     0.302912  Biso 1.000000     H
    H   1.0     0.490574     0.573262     0.346508  Biso 1.000000     H
    H   1.0     0.396776     0.468350     0.223215  Biso 1.000000     H
    H   1.0     0.679843     0.440999     0.653439  Biso 1.000000     H
    H   1.0     0.492065     0.312715     0.539768  Biso 1.000000     H
    H   1.0     0.309725     0.444965     0.444261  Biso 1.000000     H
    H   1.0     0.317556     0.323025     0.388794  Biso 1.000000     H
    H   1.0     0.324496     0.317374     0.535372  Biso 1.000000     H
    H   1.0     0.333187     0.443368     0.605578  Biso 1.000000     H
    H   1.0     0.214127     0.834207     0.650550  Biso 1.000000     H
    H   1.0     0.080167     0.723789     0.425592  Biso 1.000000     H
    H   1.0     0.958157     0.905825     0.362449  Biso 1.000000     H
    H   1.0     0.008504     0.817075     0.302292  Biso 1.000000     H
    H   1.0     0.855938     0.772998     0.346418  Biso 1.000000     H
    H   1.0     0.826333     0.754608     0.222927  Biso 1.000000     H
    H   1.0     0.973050     0.211906     0.652749  Biso 1.000000     H
    H   1.0     0.047421     0.226831     0.539139  Biso 1.000000     H
    H   1.0     0.133754    -0.001042     0.442906  Biso 1.000000     H
    H   1.0     0.071375     0.066473     0.388376  Biso 1.000000     H
    H   1.0     0.211502     0.217652     0.535691  Biso 1.000000     H
    H   1.0     0.272123     0.160804     0.605016  Biso 1.000000     H
    H   1.0     0.066696     0.186795     0.150740  Biso 1.000000     H
    H   1.0     0.951916     0.095435     0.925697  Biso 1.000000     H
    H   1.0     0.706924     0.154370     0.863003  Biso 1.000000     H
    H   1.0     0.735697     0.044002     0.802882  Biso 1.000000     H
    H   1.0     0.823286     0.240539     0.846428  Biso 1.000000     H
    H   1.0     0.718366     0.146755     0.723138  Biso 1.000000     H
    H   1.0     0.691053     0.429816     0.153282  Biso 1.000000     H
    H   1.0     0.562776     0.242033     0.039640  Biso 1.000000     H
    H   1.0     0.695050     0.059709     0.944302  Biso 1.000000     H
    H   1.0     0.573104     0.067517     0.888686  Biso 1.000000     H
    H   1.0     0.567304     0.074464     0.035161  Biso 1.000000     H
    H   1.0     0.693297     0.083178     0.105510  Biso 1.000000     H
    H   1.0     0.084187     0.964086     0.150511  Biso 1.000000     H
    H   1.0     0.973817     0.830181     0.925581  Biso 1.000000     H
    H   1.0     0.155878     0.708264     0.862549  Biso 1.000000     H
    H   1.0     0.067136     0.758641     0.802363  Biso 1.000000     H
    H   1.0     0.023052     0.605996     0.846451  Biso 1.000000     H
    H   1.0     0.004652     0.576445     0.722973  Biso 1.000000     H
    H   1.0     0.461967     0.723124     0.152905  Biso 1.000000     H
    H   1.0     0.476867     0.797485     0.039246  Biso 1.000000     H
    H   1.0     0.249009     0.883854     0.942962  Biso 1.000000     H
    H   1.0     0.316502     0.821455     0.888462  Biso 1.000000     H
    H   1.0     0.467694     0.961561     0.035709  Biso 1.000000     H
    H   1.0     0.410880     0.022161     0.105042  Biso 1.000000     H
    H   1.0     0.035970     0.933628     0.849839  Biso 1.000000     H
    H   1.0     0.169754     0.048572     0.074780  Biso 1.000000     H
    H   1.0     0.291326     0.293553     0.136726  Biso 1.000000     H
    H   1.0     0.241162     0.264878     0.197261  Biso 1.000000     H
    H   1.0     0.393802     0.177468     0.153324  Biso 1.000000     H
    H   1.0     0.423290     0.282324     0.276648  Biso 1.000000     H
    H   1.0     0.276818     0.309361     0.846255  Biso 1.000000     H
    H   1.0     0.202959     0.437585     0.960083  Biso 1.000000     H
    H   1.0     0.115778     0.305473     0.056081  Biso 1.000000     H
    H   1.0     0.179065     0.427405     0.111154  Biso 1.000000     H
    H   1.0     0.039536     0.432660     0.964604  Biso 1.000000     H
    H   1.0     0.978056     0.306622     0.894695  Biso 1.000000     H
    H   1.0     0.814128     0.916050     0.849394  Biso 1.000000     H
    H   1.0     0.905034     0.026309     0.074390  Biso 1.000000     H
    H   1.0     0.845442     0.844113     0.137501  Biso 1.000000     H
    H   1.0     0.955967     0.933041     0.197631  Biso 1.000000     H
    H   1.0     0.759543     0.976798     0.153653  Biso 1.000000     H
    H   1.0     0.853101     0.995140     0.277064  Biso 1.000000     H
    H   1.0     0.569999     0.537873     0.847387  Biso 1.000000     H
    H   1.0     0.757582     0.523156     0.960781  Biso 1.000000     H
    H   1.0     0.940310     0.751026     0.056177  Biso 1.000000     H
    H   1.0     0.932392     0.684516     0.111856  Biso 1.000000     H
    H   1.0     0.925277     0.532630     0.965436  Biso 1.000000     H
    H   1.0     0.916800     0.588475     0.895094  Biso 1.000000     H
    C   1.0     0.045692     0.539939     0.445577  Biso 1.000000     C
    C   1.0     0.144660     0.566881     0.402240  Biso 1.000000     C
    C   1.0     0.200052     0.611297     0.512836  Biso 1.000000     C
    C   1.0     0.162048     0.625246     0.648689  Biso 1.000000     C
    C   1.0     0.243467     0.589522     0.705494  Biso 1.000000     C
    C   1.0     0.346492     0.643521     0.747799  Biso 1.000000     C
    C   1.0     0.958785     0.499505     0.435242  Biso 1.000000     C
    C   1.0     0.834576     0.392094     0.384855  Biso 1.000000     C
    C   1.0     0.826741     0.483857     0.440918  Biso 1.000000     C
    C   1.0     0.928849     0.659322     0.536016  Biso 1.000000     C
    C   1.0     0.853122     0.697710     0.476465  Biso 1.000000     C
    C   1.0     0.887937     0.809779     0.540029  Biso 1.000000     C
    C   1.0     0.400059     0.905323     0.445198  Biso 1.000000     C
    C   1.0     0.257883     0.835697     0.402433  Biso 1.000000     C
    C   1.0     0.313176     0.901732     0.513003  Biso 1.000000     C
    C   1.0     0.486941     0.022970     0.648326  Biso 1.000000     C
    C   1.0     0.462408     0.115510     0.705164  Biso 1.000000     C
    C   1.0     0.401631     0.103864     0.747545  Biso 1.000000     C
    C   1.0     0.476513     0.935247     0.434564  Biso 1.000000     C
    C   1.0     0.550250     0.992401     0.384046  Biso 1.000000     C
    C   1.0     0.614228     0.956829     0.440311  Biso 1.000000     C
    C   1.0     0.607396     0.876442     0.535689  Biso 1.000000     C
    C   1.0     0.623257     0.778393     0.476008  Biso 1.000000     C
    C   1.0     0.651987     0.729902     0.539733  Biso 1.000000     C
    C   1.0     0.460355     0.600323     0.554954  Biso 1.000000     C
    C   1.0     0.433810     0.742475     0.597998  Biso 1.000000     C
    C   1.0     0.389191     0.687252     0.487376  Biso 1.000000     C
    C   1.0     0.374774     0.513571     0.351756  Biso 1.000000     C
    C   1.0     0.410584     0.538218     0.294806  Biso 1.000000     C
    C   1.0     0.356827     0.598935     0.252413  Biso 1.000000     C
    C   1.0     0.500590     0.523829     0.565428  Biso 1.000000     C
    C   1.0     0.607759     0.450057     0.615810  Biso 1.000000     C
    C   1.0     0.515909     0.386073     0.559633  Biso 1.000000     C
    C   1.0     0.340592     0.392972     0.464518  Biso 1.000000     C
    C   1.0     0.302139     0.376806     0.524227  Biso 1.000000     C
    C   1.0     0.190080     0.348111     0.460765  Biso 1.000000     C
    C   1.0     0.094301     0.954408     0.554303  Biso 1.000000     C
    C   1.0     0.164226     0.855557     0.597706  Biso 1.000000     C
    C   1.0     0.098108     0.800086     0.487139  Biso 1.000000     C
    C   1.0     0.976653     0.837935     0.351253  Biso 1.000000     C
    C   1.0     0.884175     0.756387     0.294584  Biso 1.000000     C
    C   1.0     0.895814     0.653450     0.252402  Biso 1.000000     C
    C   1.0     0.064332     0.041213     0.564597  Biso 1.000000     C
    C   1.0     0.007535     0.165306     0.615076  Biso 1.000000     C
    C   1.0     0.043313     0.173241     0.558905  Biso 1.000000     C
    C   1.0     0.123676     0.071441     0.463772  Biso 1.000000     C
    C   1.0     0.222141     0.146780     0.523914  Biso 1.000000     C
    C   1.0     0.270804     0.112154     0.460407  Biso 1.000000     C
    C   1.0     0.850354     0.210331     0.054873  Biso 1.000000     C
    C   1.0     0.992512     0.183802     0.097987  Biso 1.000000     C
    C   1.0     0.937286     0.139174     0.987384  Biso 1.000000     C
    C   1.0     0.763598     0.124741     0.851699  Biso 1.000000     C
    C   1.0     0.788236     0.160550     0.794739  Biso 1.000000     C
    C   1.0     0.848933     0.106783     0.752361  Biso 1.000000     C
    C   1.0     0.773860     0.250561     0.065309  Biso 1.000000     C
    C   1.0     0.700101     0.357730     0.115665  Biso 1.000000     C
    C   1.0     0.636123     0.265876     0.059500  Biso 1.000000     C
    C   1.0     0.643020     0.090569     0.964461  Biso 1.000000     C
    C   1.0     0.626772     0.052117     0.024119  Biso 1.000000     C
    C   1.0     0.598090     0.940093     0.960727  Biso 1.000000     C
    C   1.0     0.204443     0.844386     0.054351  Biso 1.000000     C
    C   1.0     0.105557     0.914227     0.097691  Biso 1.000000     C
    C   1.0     0.050106     0.848139     0.987152  Biso 1.000000     C
    C   1.0     0.087983     0.726751     0.851317  Biso 1.000000     C
    C   1.0     0.006434     0.634262     0.794624  Biso 1.000000     C
    C   1.0     0.903515     0.645917     0.752430  Biso 1.000000     C
    C   1.0     0.291275     0.814430     0.064679  Biso 1.000000     C
    C   1.0     0.415368     0.757624     0.115210  Biso 1.000000     C
    C   1.0     0.423288     0.793388     0.059012  Biso 1.000000     C
    C   1.0     0.321486     0.873765     0.963849  Biso 1.000000     C
    C   1.0     0.396834     0.972208     0.023939  Biso 1.000000     C
    C   1.0     0.362168     0.020878     0.960454  Biso 1.000000     C
    C   1.0     0.155256     0.150035     0.945127  Biso 1.000000     C
    C   1.0     0.085672     0.007857     0.902419  Biso 1.000000     C
    C   1.0     0.151713     0.063156     0.012966  Biso 1.000000     C
    C   1.0     0.272953     0.236934     0.148240  Biso 1.000000     C
    C   1.0     0.365517     0.212417     0.205095  Biso 1.000000     C
    C   1.0     0.353925     0.151637     0.247513  Biso 1.000000     C
    C   1.0     0.185144     0.226497     0.934466  Biso 1.000000     C
    C   1.0     0.242258     0.300268     0.883942  Biso 1.000000     C
    C   1.0     0.206704     0.364234     0.940206  Biso 1.000000     C
    C   1.0     0.126381     0.357360     0.035573  Biso 1.000000     C
    C   1.0     0.028341     0.373281     0.975944  Biso 1.000000     C
    C   1.0     0.979907     0.402003     0.039662  Biso 1.000000     C
    C   1.0     0.789964     0.795698     0.945632  Biso 1.000000     C
    C   1.0     0.816910     0.894651     0.902256  Biso 1.000000     C
    C   1.0     0.861304     0.950047     0.012819  Biso 1.000000     C
    C   1.0     0.875239     0.912064     0.148699  Biso 1.000000     C
    C   1.0     0.839500     0.993476     0.205443  Biso 1.000000     C
    C   1.0     0.893477     0.096472     0.247705  Biso 1.000000     C
    C   1.0     0.749537     0.708786     0.935330  Biso 1.000000     C
    C   1.0     0.642146     0.584573     0.884974  Biso 1.000000     C
    C   1.0     0.733915     0.576725     0.941027  Biso 1.000000     C
    C   1.0     0.909369     0.678818     0.036065  Biso 1.000000     C
    C   1.0     0.947742     0.603181     0.976478  Biso 1.000000     C
    C   1.0     0.059800     0.637992     0.040027  Biso 1.000000     C
    N   1.0     0.048929     0.523070     0.361189  Biso 1.000000     N
    N   1.0     0.137119     0.593401     0.539784  Biso 1.000000     N
    N   1.0     0.916929     0.402490     0.381874  Biso 1.000000     N
    N   1.0     0.905491     0.551337     0.472452  Biso 1.000000     N
    N   1.0     0.312432     0.838132     0.361037  Biso 1.000000     N
    N   1.0     0.402969     0.946166     0.539596  Biso 1.000000     N
    N   1.0     0.464930     0.978892     0.381046  Biso 1.000000     N
    N   1.0     0.567076     0.920828     0.471954  Biso 1.000000     N
    N   1.0     0.477499     0.687897     0.639250  Biso 1.000000     N
    N   1.0     0.406814     0.597466     0.460603  Biso 1.000000     N
    N   1.0     0.597570     0.535401     0.618845  Biso 1.000000     N
    N   1.0     0.448587     0.433248     0.528071  Biso 1.000000     N
    N   1.0     0.161651     0.951269     0.638703  Biso 1.000000     N
    N   1.0     0.053484     0.862943     0.460155  Biso 1.000000     N
    N   1.0     0.020724     0.082970     0.618064  Biso 1.000000     N
    N   1.0     0.079119     0.094571     0.527329  Biso 1.000000     N
    N   1.0     0.937934     0.227496     0.139201  Biso 1.000000     N
    N   1.0     0.847497     0.156791     0.960568  Biso 1.000000     N
    N   1.0     0.785434     0.347541     0.118709  Biso 1.000000     N
    N   1.0     0.683293     0.198554     0.027964  Biso 1.000000     N
    N   1.0     0.201281     0.911690     0.138728  Biso 1.000000     N
    N   1.0     0.112981     0.803564     0.960204  Biso 1.000000     N
    N   1.0     0.333039     0.770823     0.118178  Biso 1.000000     N
    N   1.0     0.344623     0.829204     0.027410  Biso 1.000000     N
    N   1.0     0.088078     0.062399     0.860986  Biso 1.000000     N
    N   1.0     0.196120     0.152949     0.039523  Biso 1.000000     N
    N   1.0     0.228764     0.214933     0.880948  Biso 1.000000     N
    N   1.0     0.170726     0.317061     0.971852  Biso 1.000000     N
    N   1.0     0.773109     0.798921     0.861234  Biso 1.000000     N
    N   1.0     0.843400     0.887123     0.039790  Biso 1.000000     N
    N   1.0     0.652527     0.666935     0.881977  Biso 1.000000     N
    N   1.0     0.801381     0.655474     0.972537  Biso 1.000000     N
    O   1.0     0.412277     0.600114     0.762338  Biso 1.000000     O
    O   1.0     0.362677     0.730142     0.768120  Biso 1.000000     O
    O   1.0     0.967769     0.855339     0.634518  Biso 1.000000     O
    O   1.0     0.837839     0.853833     0.498140  Biso 1.000000     O
    O   1.0     0.350147     0.161664     0.761725  Biso 1.000000     O
    O   1.0     0.405761     0.037680     0.768054  Biso 1.000000     O
    O   1.0     0.666626     0.778837     0.634292  Biso 1.000000     O
    O   1.0     0.660284     0.644053     0.497978  Biso 1.000000     O
    O   1.0     0.400508     0.650649     0.238332  Biso 1.000000     O
    O   1.0     0.270048     0.594378     0.231670  Biso 1.000000     O
    O   1.0     0.144623     0.334177     0.366501  Biso 1.000000     O
    O   1.0     0.145987     0.339237     0.502455  Biso 1.000000     O
    O   1.0     0.838056     0.587654     0.238290  Biso 1.000000     O
    O   1.0     0.961941     0.637359     0.231774  Biso 1.000000     O
    O   1.0     0.222070     0.032091     0.366074  Biso 1.000000     O
    O   1.0     0.356570     0.162506     0.502113  Biso 1.000000     O
    O   1.0     0.900578     0.150438     0.738196  Biso 1.000000     O
    O   1.0     0.844423     0.020026     0.731708  Biso 1.000000     O
    O   1.0     0.584199     0.894623     0.866494  Biso 1.000000     O
    O   1.0     0.589200     0.896001     0.002407  Biso 1.000000     O
    O   1.0     0.837713     0.588100     0.738257  Biso 1.000000     O
    O   1.0     0.887431     0.712100     0.731875  Biso 1.000000     O
    O   1.0     0.282076     0.972180     0.866137  Biso 1.000000     O
    O   1.0     0.412534     0.106617     0.002092  Biso 1.000000     O
    O   1.0     0.411688     0.100114     0.261657  Biso 1.000000     O
    O   1.0     0.287793     0.155809     0.268087  Biso 1.000000     O
    O   1.0     0.028883     0.416689     0.134253  Biso 1.000000     O
    O   1.0     0.894039     0.410271     0.997913  Biso 1.000000     O
    O   1.0     0.850044     0.162237     0.262152  Biso 1.000000     O
    O   1.0     0.980121     0.112683     0.268114  Biso 1.000000     O
    O   1.0     0.105369     0.717756     0.134564  Biso 1.000000     O
    O   1.0     0.103838     0.587947     0.998146  Biso 1.000000     O
   Cd   1.0     0.533102     0.736924     0.818378  Biso 1.000000    Cd
   Cd   1.0     0.284792     0.081471     0.817616  Biso 1.000000    Cd
   Cd   1.0     0.262985     0.714765     0.181912  Biso 1.000000    Cd
   Cd   1.0     0.918982     0.467169     0.182116  Biso 1.000000    Cd
   Cd   1.0     0.964701     0.012932     0.681840  Biso 1.000000    Cd
   Cd   1.0     0.717187     0.668939     0.682191  Biso 1.000000    Cd
   Cd   1.0     0.331442     0.034857     0.317650  Biso 1.000000    Cd
   Cd   1.0     0.986921     0.283093     0.318308  Biso 1.000000    Cd
