#======================================================================

# CRYSTAL DATA

#----------------------------------------------------------------------

data_VESTA_phase_1


_pd_phase_name                         MOF
_cell_length_a                         11.74800
_cell_length_b                         17.02700
_cell_length_c                         17.45000
_cell_angle_alpha                      66.45600
_cell_angle_beta                       75.90600
_cell_angle_gamma                      103.88600
_symmetry_space_group_name_H-M         "P 1"
_symmetry_Int_Tables_number            1

loop_
_symmetry_equiv_pos_as_xyz
   "x, y, z"

loop_
   _atom_site_label
   _atom_site_occupancy
   _atom_site_fract_x
   _atom_site_fract_y
   _atom_site_fract_z
   _atom_site_adp_type
   _atom_site_B_iso_or_equiv
   _atom_site_type_symbol
    H   1.0     0.327577     0.066299     0.526242  Biso 1.000000     H
    H   1.0     0.487090     0.966154     0.655196  Biso 1.000000     H
    H   1.0     0.356265     0.054095     0.663912  Biso 1.000000     H
    H   1.0     0.422476     0.156304     0.670740  Biso 1.000000     H
    H   1.0     0.508300     0.400892     0.394201  Biso 1.000000     H
    H   1.0     0.877888     0.089396     0.579097  Biso 1.000000     H
    H   1.0     0.860208     0.243877     0.535583  Biso 1.000000     H
    H   1.0     0.415078     0.328186     0.313438  Biso 1.000000     H
    H   1.0     0.863805     0.540963     0.400071  Biso 1.000000     H
    H   1.0     0.174495     0.668335     0.365745  Biso 1.000000     H
    H   1.0     0.050310     0.673527     0.275494  Biso 1.000000     H
    H   1.0     0.118814     0.672311     0.172411  Biso 1.000000     H
    H   1.0     0.893014     0.382913     0.221603  Biso 1.000000     H
    H   1.0     0.458736     0.561998     0.340472  Biso 1.000000     H
    H   1.0     0.391397     0.515899     0.233539  Biso 1.000000     H
    H   1.0     0.711215     0.313858     0.367863  Biso 1.000000     H
    H   1.0     0.253503     0.389884     0.065575  Biso 1.000000     H
    H   1.0     0.529981     0.365304     0.962951  Biso 1.000000     H
    H   1.0     0.313096     0.266230     0.052363  Biso 1.000000     H
    H   1.0     0.280780     0.161668     0.151894  Biso 1.000000     H
    H   1.0     0.118513     0.209043     0.391742  Biso 1.000000     H
    H   1.0     0.803864     0.351118     0.076749  Biso 1.000000     H
    H   1.0     0.632898     0.235452     0.228625  Biso 1.000000     H
    H   1.0     0.083325     0.355439     0.322504  Biso 1.000000     H
    H   1.0     0.672472     0.933700     0.473718  Biso 1.000000     H
    H   1.0     0.512955     0.033844     0.344768  Biso 1.000000     H
    H   1.0     0.643782     0.945904     0.336048  Biso 1.000000     H
    H   1.0     0.577571     0.843696     0.329220  Biso 1.000000     H
    H   1.0     0.491739     0.599108     0.605761  Biso 1.000000     H
    H   1.0     0.122159     0.910604     0.420856  Biso 1.000000     H
    H   1.0     0.139840     0.756124     0.464371  Biso 1.000000     H
    H   1.0     0.584963     0.671812     0.686524  Biso 1.000000     H
    H   1.0     0.136234     0.459040     0.599889  Biso 1.000000     H
    H   1.0     0.825546     0.331671     0.634213  Biso 1.000000     H
    H   1.0     0.949728     0.326475     0.724466  Biso 1.000000     H
    H   1.0     0.881223     0.327691     0.827549  Biso 1.000000     H
    H   1.0     0.107032     0.617084     0.778363  Biso 1.000000     H
    H   1.0     0.541308     0.438011     0.659484  Biso 1.000000     H
    H   1.0     0.608647     0.484109     0.766418  Biso 1.000000     H
    H   1.0     0.288831     0.686139     0.632103  Biso 1.000000     H
    H   1.0     0.746535     0.610114     0.934390  Biso 1.000000     H
    H   1.0     0.470063     0.634697     0.037013  Biso 1.000000     H
    H   1.0     0.686948     0.733771     0.947600  Biso 1.000000     H
    H   1.0     0.719261     0.838332     0.848068  Biso 1.000000     H
    H   1.0     0.881538     0.790958     0.608221  Biso 1.000000     H
    H   1.0     0.196182     0.648864     0.923213  Biso 1.000000     H
    H   1.0     0.367146     0.764532     0.771336  Biso 1.000000     H
    H   1.0     0.916725     0.644562     0.677460  Biso 1.000000     H
    C   1.0     0.559656     0.113037     0.612350  Biso 1.000000     C
    C   1.0     0.422806     0.181826     0.540847  Biso 1.000000     C
    C   1.0     0.368399     0.141485     0.496028  Biso 1.000000     C
    C   1.0     0.570052     0.027796     0.631656  Biso 1.000000     C
    C   1.0     0.432546     0.122823     0.628337  Biso 1.000000     C
    C   1.0     0.467048     0.325936     0.424444  Biso 1.000000     C
    C   1.0     0.786046     0.095562     0.588050  Biso 1.000000     C
    C   1.0     0.776118     0.181327     0.565032  Biso 1.000000     C
    C   1.0     0.414577     0.285333     0.379661  Biso 1.000000     C
    C   1.0     0.190614     0.612679     0.273579  Biso 1.000000     C
    C   1.0    -0.025344     0.544055     0.278727  Biso 1.000000     C
    C   1.0     0.871289     0.505544     0.360059  Biso 1.000000     C
    C   1.0     0.225557     0.636047     0.334943  Biso 1.000000     C
    C   1.0     0.083254     0.632554     0.246726  Biso 1.000000     C
    C   1.0     0.886994     0.419215     0.260680  Biso 1.000000     C
    C   1.0     0.380984     0.576242     0.322067  Biso 1.000000     C
    C   1.0     0.344380     0.551336     0.262245  Biso 1.000000     C
    C   1.0     0.785622     0.380730     0.342313  Biso 1.000000     C
    C   1.0     0.458966     0.269649     0.106238  Biso 1.000000     C
    C   1.0     0.247090     0.268292     0.177153  Biso 1.000000     C
    C   1.0     0.224231     0.349304     0.138700  Biso 1.000000     C
    C   1.0     0.554077     0.335285     0.021871  Biso 1.000000     C
    C   1.0     0.320786     0.237838     0.118625  Biso 1.000000     C
    C   1.0     0.148871     0.248741     0.318697  Biso 1.000000     C
    C   1.0     0.704966     0.328262     0.084587  Biso 1.000000     C
    C   1.0     0.610084     0.263693     0.168895  Biso 1.000000     C
    C   1.0     0.128721     0.330390     0.279950  Biso 1.000000     C
    C   1.0     0.440391     0.886963     0.387609  Biso 1.000000     C
    C   1.0     0.577240     0.818173     0.459113  Biso 1.000000     C
    C   1.0     0.631648     0.858514     0.503932  Biso 1.000000     C
    C   1.0     0.429993     0.972204     0.368305  Biso 1.000000     C
    C   1.0     0.567501     0.877177     0.371623  Biso 1.000000     C
    C   1.0     0.532994     0.674063     0.575517  Biso 1.000000     C
    C   1.0     0.214000     0.904438     0.411906  Biso 1.000000     C
    C   1.0     0.223929     0.818673     0.434923  Biso 1.000000     C
    C   1.0     0.585466     0.714666     0.620300  Biso 1.000000     C
    C   1.0     0.809427     0.387326     0.726379  Biso 1.000000     C
    C   1.0     0.000000     0.455946     0.721234  Biso 1.000000     C
    C   1.0     0.128751     0.494458     0.639902  Biso 1.000000     C
    C   1.0     0.774485     0.363959     0.665014  Biso 1.000000     C
    C   1.0     0.916785     0.367449     0.753234  Biso 1.000000     C
    C   1.0     0.113051     0.580783     0.739285  Biso 1.000000     C
    C   1.0     0.619060     0.423766     0.677889  Biso 1.000000     C
    C   1.0     0.655664     0.448672     0.737712  Biso 1.000000     C
    C   1.0     0.214423     0.619268     0.657652  Biso 1.000000     C
    C   1.0     0.541078     0.730347     0.893725  Biso 1.000000     C
    C   1.0     0.752955     0.731708     0.822810  Biso 1.000000     C
    C   1.0     0.775811     0.650695     0.861264  Biso 1.000000     C
    C   1.0     0.445967     0.664712     0.978092  Biso 1.000000     C
    C   1.0     0.679257     0.762162     0.881338  Biso 1.000000     C
    C   1.0     0.851179     0.751260     0.681266  Biso 1.000000     C
    C   1.0     0.295079     0.671724     0.915375  Biso 1.000000     C
    C   1.0     0.389960     0.736294     0.831067  Biso 1.000000     C
    C   1.0     0.871326     0.669611     0.720014  Biso 1.000000     C
    N   1.0     0.682942     0.018389     0.621818  Biso 1.000000     N
    N   1.0     0.473015     0.274922     0.504390  Biso 1.000000     N
    N   1.0     0.663467     0.189872     0.579030  Biso 1.000000     N
    N   1.0     0.365307     0.192715     0.415332  Biso 1.000000     N
    N   1.0     0.322385     0.619533     0.358020  Biso 1.000000     N
    N   1.0    -0.017748     0.500331     0.228917  Biso 1.000000     N
    N   1.0     0.251294     0.570897     0.236720  Biso 1.000000     N
    N   1.0     0.777498     0.423670     0.392358  Biso 1.000000     N
    N   1.0     0.677466     0.363487     0.010472  Biso 1.000000     N
    N   1.0     0.209298     0.217846     0.267907  Biso 1.000000     N
    N   1.0     0.487739     0.233221     0.179638  Biso 1.000000     N
    N   1.0     0.166725     0.381067     0.189742  Biso 1.000000     N
    N   1.0     0.317104     0.981611     0.378141  Biso 1.000000     N
    N   1.0     0.527028     0.725077     0.495571  Biso 1.000000     N
    N   1.0     0.336580     0.810129     0.420927  Biso 1.000000     N
    N   1.0     0.634739     0.807284     0.584628  Biso 1.000000     N
    N   1.0     0.677658     0.380474     0.641936  Biso 1.000000     N
    N   1.0     0.000000     0.499668     0.771046  Biso 1.000000     N
    N   1.0     0.748748     0.429108     0.763239  Biso 1.000000     N
    N   1.0     0.222545     0.576330     0.607605  Biso 1.000000     N
    N   1.0     0.322579     0.636505     0.989490  Biso 1.000000     N
    N   1.0     0.790750     0.782155     0.732056  Biso 1.000000     N
    N   1.0     0.512304     0.766770     0.820324  Biso 1.000000     N
    N   1.0     0.833319     0.618932     0.810223  Biso 1.000000     N
    O   1.0     0.871646     0.738571     0.499157  Biso 1.000000     O
    O   1.0     0.945159     0.613717     0.553120  Biso 1.000000     O
    O   1.0     0.779761     0.598578     0.494099  Biso 1.000000     O
    O   1.0     0.994719     0.703696     0.393726  Biso 1.000000     O
    O   1.0     0.364265     0.499135     0.771789  Biso 1.000000     O
    O   1.0     0.502039     0.551770     0.838276  Biso 1.000000     O
    O   1.0     0.274395     0.487874     0.917732  Biso 1.000000     O
    O   1.0     0.383721     0.388551     0.902344  Biso 1.000000     O
    O   1.0     0.159992     0.766480     0.765609  Biso 1.000000     O
    O   1.0     0.357825     0.836966     0.637495  Biso 1.000000     O
    O   1.0     0.160204     0.816481     0.615218  Biso 1.000000     O
    O   1.0     0.239617     0.929485     0.659099  Biso 1.000000     O
    O   1.0     0.128434     0.261475     0.500769  Biso 1.000000     O
    O   1.0     0.054882     0.386312     0.446834  Biso 1.000000     O
    O   1.0     0.220271     0.401452     0.505865  Biso 1.000000     O
    O   1.0     0.005318     0.296306     0.606224  Biso 1.000000     O
    O   1.0     0.635765     0.500855     0.228174  Biso 1.000000     O
    O   1.0     0.497992     0.448228     0.161683  Biso 1.000000     O
    O   1.0     0.725636     0.512109     0.082233  Biso 1.000000     O
    O   1.0     0.616329     0.611444     0.097611  Biso 1.000000     O
    O   1.0     0.840043     0.233519     0.234355  Biso 1.000000     O
    O   1.0     0.642224     0.163043     0.362478  Biso 1.000000     O
    O   1.0     0.839854     0.183506     0.384741  Biso 1.000000     O
    O   1.0     0.760400     0.070512     0.340860  Biso 1.000000     O
   Cl   1.0     0.896781     0.663530     0.485337  Biso 1.000000    Cl
   Cl   1.0     0.380090     0.481915     0.857548  Biso 1.000000    Cl
   Cl   1.0     0.228356     0.837299     0.669418  Biso 1.000000    Cl
   Cl   1.0     0.103267     0.336497     0.514612  Biso 1.000000    Cl
   Cl   1.0     0.619946     0.518077     0.142413  Biso 1.000000    Cl
   Cl   1.0     0.771684     0.162699     0.330546  Biso 1.000000    Cl
   Ag   1.0     0.683535     0.874494     0.673648  Biso 1.000000    Ag
   Ag   1.0     0.370003     0.659996     0.456365  Biso 1.000000    Ag
   Ag   1.0     0.822268     0.466044     0.872960  Biso 1.000000    Ag
   Ag   1.0     0.316509     0.125504     0.326314  Biso 1.000000    Ag
   Ag   1.0     0.630036     0.340005     0.543596  Biso 1.000000    Ag
   Ag   1.0     0.177775     0.533954     0.127004  Biso 1.000000    Ag
