#======================================================================

# CRYSTAL DATA

#----------------------------------------------------------------------

data_VESTA_phase_1


_pd_phase_name                         MOF
_cell_length_a                         22.75400
_cell_length_b                         17.04000
_cell_length_c                         17.04300
_cell_angle_alpha                      64.98200
_cell_angle_beta                       77.06800
_cell_angle_gamma                      102.89000
_symmetry_space_group_name_H-M         "P 1"
_symmetry_Int_Tables_number            1

loop_
_symmetry_equiv_pos_as_xyz
   "x, y, z"

loop_
   _atom_site_label
   _atom_site_occupancy
   _atom_site_fract_x
   _atom_site_fract_y
   _atom_site_fract_z
   _atom_site_adp_type
   _atom_site_B_iso_or_equiv
   _atom_site_type_symbol
    H   1.0     0.498039     0.396858     0.391390  Biso 1.000000     H
    H   1.0     0.998070     0.396873     0.391244  Biso 1.000000     H
    H   1.0     0.406348     0.060042     0.547833  Biso 1.000000     H
    H   1.0     0.906240     0.060056     0.547782  Biso 1.000000     H
    H   1.0     0.000380     0.970005     0.671655  Biso 1.000000     H
    H   1.0     0.500520     0.970034     0.671531  Biso 1.000000     H
    H   1.0     0.187990     0.255001     0.516559  Biso 1.000000     H
    H   1.0     0.688157     0.254970     0.516568  Biso 1.000000     H
    H   1.0     0.467411     0.162841     0.680031  Biso 1.000000     H
    H   1.0     0.967211     0.162819     0.680049  Biso 1.000000     H
    H   1.0     0.432160     0.056511     0.681873  Biso 1.000000     H
    H   1.0     0.931986     0.056505     0.681846  Biso 1.000000     H
    H   1.0     0.201148     0.101546     0.558364  Biso 1.000000     H
    H   1.0     0.701291     0.101514     0.558310  Biso 1.000000     H
    H   1.0     0.446962     0.316454     0.317941  Biso 1.000000     H
    H   1.0     0.947057     0.316461     0.317752  Biso 1.000000     H
    H   1.0     0.193117     0.390580     0.211905  Biso 1.000000     H
    H   1.0     0.693165     0.390580     0.211863  Biso 1.000000     H
    H   1.0     0.180317     0.548722     0.391368  Biso 1.000000     H
    H   1.0     0.680431     0.548704     0.391351  Biso 1.000000     H
    H   1.0     0.336277     0.671873     0.358201  Biso 1.000000     H
    H   1.0     0.836343     0.671785     0.358220  Biso 1.000000     H
    H   1.0     0.445896     0.515768     0.228614  Biso 1.000000     H
    H   1.0     0.946141     0.515984     0.228402  Biso 1.000000     H
    H   1.0     0.307617     0.679733     0.156878  Biso 1.000000     H
    H   1.0     0.807716     0.679702     0.156857  Biso 1.000000     H
    H   1.0     0.273342     0.682425     0.260914  Biso 1.000000     H
    H   1.0     0.773451     0.682389     0.260897  Biso 1.000000     H
    H   1.0     0.479787     0.557546     0.340564  Biso 1.000000     H
    H   1.0     0.980025     0.557780     0.340335  Biso 1.000000     H
    H   1.0     0.105470     0.317711     0.365573  Biso 1.000000     H
    H   1.0     0.605488     0.317767     0.365495  Biso 1.000000     H
    H   1.0     0.299741     0.212369     0.396494  Biso 1.000000     H
    H   1.0     0.799760     0.212241     0.396543  Biso 1.000000     H
    H   1.0     0.376197     0.390724     0.059707  Biso 1.000000     H
    H   1.0     0.876028     0.390456     0.059762  Biso 1.000000     H
    H   1.0     0.015461     0.358515     0.969756  Biso 1.000000     H
    H   1.0     0.515584     0.358511     0.969759  Biso 1.000000     H
    H   1.0     0.060647     0.228096     0.254206  Biso 1.000000     H
    H   1.0     0.560647     0.227887     0.254286  Biso 1.000000     H
    H   1.0     0.386178     0.156456     0.162378  Biso 1.000000     H
    H   1.0     0.886165     0.156266     0.162471  Biso 1.000000     H
    H   1.0     0.404014     0.260394     0.056079  Biso 1.000000     H
    H   1.0     0.903902     0.260131     0.056153  Biso 1.000000     H
    H   1.0     0.150441     0.341070     0.100930  Biso 1.000000     H
    H   1.0     0.650505     0.340638     0.101033  Biso 1.000000     H
    H   1.0     0.288663     0.365655     0.316149  Biso 1.000000     H
    H   1.0     0.788679     0.365529     0.316199  Biso 1.000000     H
    H   1.0     0.001927     0.603141     0.608768  Biso 1.000000     H
    H   1.0     0.501957     0.603155     0.608623  Biso 1.000000     H
    H   1.0     0.093757     0.939958     0.452230  Biso 1.000000     H
    H   1.0     0.593650     0.939971     0.452179  Biso 1.000000     H
    H   1.0     0.499478     0.029979     0.328482  Biso 1.000000     H
    H   1.0     0.999617     0.030009     0.328359  Biso 1.000000     H
    H   1.0     0.311840     0.745044     0.483441  Biso 1.000000     H
    H   1.0     0.812007     0.745013     0.483455  Biso 1.000000     H
    H   1.0     0.032785     0.837195     0.319963  Biso 1.000000     H
    H   1.0     0.532588     0.837173     0.319981  Biso 1.000000     H
    H   1.0     0.068010     0.943509     0.318166  Biso 1.000000     H
    H   1.0     0.567838     0.943502     0.318140  Biso 1.000000     H
    H   1.0     0.298707     0.898500     0.441700  Biso 1.000000     H
    H   1.0     0.798848     0.898467     0.441651  Biso 1.000000     H
    H   1.0     0.052941     0.683553     0.682260  Biso 1.000000     H
    H   1.0     0.553035     0.683559     0.682072  Biso 1.000000     H
    H   1.0     0.306832     0.609434     0.788148  Biso 1.000000     H
    H   1.0     0.806879     0.609434     0.788106  Biso 1.000000     H
    H   1.0     0.319566     0.451309     0.608661  Biso 1.000000     H
    H   1.0     0.819681     0.451292     0.608644  Biso 1.000000     H
    H   1.0     0.163654     0.328230     0.641792  Biso 1.000000     H
    H   1.0     0.663721     0.328141     0.641810  Biso 1.000000     H
    H   1.0     0.053855     0.484029     0.771611  Biso 1.000000     H
    H   1.0     0.554100     0.484245     0.771399  Biso 1.000000     H
    H   1.0     0.192281     0.320312     0.843155  Biso 1.000000     H
    H   1.0     0.692380     0.320281     0.843134  Biso 1.000000     H
    H   1.0     0.226545     0.317625     0.739115  Biso 1.000000     H
    H   1.0     0.726656     0.317588     0.739098  Biso 1.000000     H
    H   1.0     0.019972     0.442234     0.659678  Biso 1.000000     H
    H   1.0     0.520210     0.442467     0.659448  Biso 1.000000     H
    H   1.0     0.394509     0.682247     0.634516  Biso 1.000000     H
    H   1.0     0.894527     0.682303     0.634439  Biso 1.000000     H
    H   1.0     0.200238     0.787773     0.603468  Biso 1.000000     H
    H   1.0     0.700256     0.787643     0.603518  Biso 1.000000     H
    H   1.0     0.123969     0.609558     0.940249  Biso 1.000000     H
    H   1.0     0.623800     0.609289     0.940306  Biso 1.000000     H
    H   1.0     0.484413     0.641501     0.030253  Biso 1.000000     H
    H   1.0     0.984536     0.641499     0.030256  Biso 1.000000     H
    H   1.0     0.439350     0.772126     0.745726  Biso 1.000000     H
    H   1.0     0.939349     0.771917     0.745806  Biso 1.000000     H
    H   1.0     0.113831     0.843748     0.837541  Biso 1.000000     H
    H   1.0     0.613819     0.843557     0.837635  Biso 1.000000     H
    H   1.0     0.096094     0.739883     0.943859  Biso 1.000000     H
    H   1.0     0.595983     0.739619     0.943933  Biso 1.000000     H
    H   1.0     0.349492     0.659374     0.898979  Biso 1.000000     H
    H   1.0     0.849556     0.658944     0.899082  Biso 1.000000     H
    H   1.0     0.211318     0.634485     0.683813  Biso 1.000000     H
    H   1.0     0.711333     0.634357     0.683864  Biso 1.000000     H
    C   1.0     0.477584     0.321506     0.426970  Biso 1.000000     C
    C   1.0     0.977582     0.321520     0.426847  Biso 1.000000     C
    C   1.0     0.427624     0.135576     0.512415  Biso 1.000000     C
    C   1.0     0.927545     0.135590     0.512350  Biso 1.000000     C
    C   1.0     0.035540     0.118307     0.618068  Biso 1.000000     C
    C   1.0     0.535698     0.118321     0.618013  Biso 1.000000     C
    C   1.0     0.042687     0.033248     0.638914  Biso 1.000000     C
    C   1.0     0.542834     0.033263     0.638816  Biso 1.000000     C
    C   1.0     0.146081     0.190821     0.552836  Biso 1.000000     C
    C   1.0     0.646240     0.190807     0.552808  Biso 1.000000     C
    C   1.0     0.458846     0.180412     0.552115  Biso 1.000000     C
    C   1.0     0.958733     0.180425     0.552077  Biso 1.000000     C
    C   1.0     0.469670     0.126027     0.640301  Biso 1.000000     C
    C   1.0     0.969501     0.126018     0.640308  Biso 1.000000     C
    C   1.0     0.153374     0.105831     0.575145  Biso 1.000000     C
    C   1.0     0.653521     0.105813     0.575084  Biso 1.000000     C
    C   1.0     0.448540     0.276485     0.386478  Biso 1.000000     C
    C   1.0     0.948575     0.276497     0.386330  Biso 1.000000     C
    C   1.0     0.190611     0.426535     0.251477  Biso 1.000000     C
    C   1.0     0.690671     0.426534     0.251438  Biso 1.000000     C
    C   1.0     0.183722     0.512885     0.351496  Biso 1.000000     C
    C   1.0     0.683824     0.512872     0.351472  Biso 1.000000     C
    C   1.0     0.344642     0.618054     0.263414  Biso 1.000000     C
    C   1.0     0.844765     0.618049     0.263365  Biso 1.000000     C
    C   1.0     0.362122     0.638906     0.327762  Biso 1.000000     C
    C   1.0     0.862228     0.638884     0.327732  Biso 1.000000     C
    C   1.0     0.422230     0.552266     0.256451  Biso 1.000000     C
    C   1.0     0.922432     0.552414     0.256289  Biso 1.000000     C
    C   1.0     0.234757     0.552226     0.267095  Biso 1.000000     C
    C   1.0     0.734859     0.552199     0.267075  Biso 1.000000     C
    C   1.0     0.289905     0.640450     0.233252  Biso 1.000000     C
    C   1.0     0.790014     0.640416     0.233230  Biso 1.000000     C
    C   1.0     0.440577     0.574548     0.319299  Biso 1.000000     C
    C   1.0     0.940775     0.574703     0.319136  Biso 1.000000     C
    C   1.0     0.141407     0.386348     0.336905  Biso 1.000000     C
    C   1.0     0.641457     0.386373     0.336851  Biso 1.000000     C
    C   1.0     0.316898     0.251675     0.321144  Biso 1.000000     C
    C   1.0     0.816876     0.251521     0.321195  Biso 1.000000     C
    C   1.0     0.359725     0.351073     0.135228  Biso 1.000000     C
    C   1.0     0.859606     0.350850     0.135280  Biso 1.000000     C
    C   1.0     0.476630     0.263060     0.117764  Biso 1.000000     C
    C   1.0     0.976564     0.263030     0.117751  Biso 1.000000     C
    C   1.0     0.026179     0.327888     0.032846  Biso 1.000000     C
    C   1.0     0.526272     0.327828     0.032868  Biso 1.000000     C
    C   1.0     0.050827     0.256125     0.190130  Biso 1.000000     C
    C   1.0     0.550852     0.255946     0.190194  Biso 1.000000     C
    C   1.0     0.368628     0.266838     0.180012  Biso 1.000000     C
    C   1.0     0.868533     0.266633     0.180060  Biso 1.000000     C
    C   1.0     0.406750     0.232833     0.125549  Biso 1.000000     C
    C   1.0     0.906677     0.232647     0.125598  Biso 1.000000     C
    C   1.0     0.100546     0.319487     0.105282  Biso 1.000000     C
    C   1.0     0.600609     0.319203     0.105353  Biso 1.000000     C
    C   1.0     0.310261     0.336892     0.276160  Biso 1.000000     C
    C   1.0     0.810233     0.336733     0.276214  Biso 1.000000     C
    C   1.0     0.022416     0.678494     0.573164  Biso 1.000000     C
    C   1.0     0.522413     0.678507     0.573043  Biso 1.000000     C
    C   1.0     0.072451     0.864424     0.487662  Biso 1.000000     C
    C   1.0     0.572373     0.864437     0.487597  Biso 1.000000     C
    C   1.0     0.464300     0.881692     0.381999  Biso 1.000000     C
    C   1.0     0.964457     0.881707     0.381946  Biso 1.000000     C
    C   1.0     0.457164     0.966750     0.361196  Biso 1.000000     C
    C   1.0     0.957310     0.966766     0.361099  Biso 1.000000     C
    C   1.0     0.353758     0.809207     0.447203  Biso 1.000000     C
    C   1.0     0.853915     0.809192     0.447179  Biso 1.000000     C
    C   1.0     0.041264     0.819589     0.447934  Biso 1.000000     C
    C   1.0     0.541152     0.819601     0.447896  Biso 1.000000     C
    C   1.0     0.030495     0.873995     0.359705  Biso 1.000000     C
    C   1.0     0.530328     0.873987     0.359711  Biso 1.000000     C
    C   1.0     0.346477     0.894201     0.424926  Biso 1.000000     C
    C   1.0     0.846622     0.894183     0.424869  Biso 1.000000     C
    C   1.0     0.051422     0.723517     0.613682  Biso 1.000000     C
    C   1.0     0.551457     0.723528     0.613535  Biso 1.000000     C
    C   1.0     0.309326     0.573480     0.748573  Biso 1.000000     C
    C   1.0     0.809386     0.573479     0.748535  Biso 1.000000     C
    C   1.0     0.316173     0.487141     0.648540  Biso 1.000000     C
    C   1.0     0.816275     0.487129     0.648516  Biso 1.000000     C
    C   1.0     0.155232     0.381965     0.736647  Biso 1.000000     C
    C   1.0     0.655355     0.381960     0.736598  Biso 1.000000     C
    C   1.0     0.137769     0.361130     0.672280  Biso 1.000000     C
    C   1.0     0.637876     0.361108     0.672249  Biso 1.000000     C
    C   1.0     0.077565     0.447599     0.743723  Biso 1.000000     C
    C   1.0     0.577767     0.447747     0.743561  Biso 1.000000     C
    C   1.0     0.265138     0.447814     0.732937  Biso 1.000000     C
    C   1.0     0.765240     0.447787     0.732917  Biso 1.000000     C
    C   1.0     0.209983     0.359598     0.766782  Biso 1.000000     C
    C   1.0     0.710092     0.359564     0.766759  Biso 1.000000     C
    C   1.0     0.059222     0.425311     0.680876  Biso 1.000000     C
    C   1.0     0.559420     0.425466     0.680712  Biso 1.000000     C
    C   1.0     0.358540     0.613641     0.663160  Biso 1.000000     C
    C   1.0     0.858589     0.613666     0.663107  Biso 1.000000     C
    C   1.0     0.183121     0.748493     0.678817  Biso 1.000000     C
    C   1.0     0.683099     0.748337     0.678868  Biso 1.000000     C
    C   1.0     0.140392     0.649164     0.864732  Biso 1.000000     C
    C   1.0     0.640272     0.648939     0.864784  Biso 1.000000     C
    C   1.0     0.023433     0.736984     0.882261  Biso 1.000000     C
    C   1.0     0.523367     0.736952     0.882249  Biso 1.000000     C
    C   1.0     0.473724     0.672184     0.967145  Biso 1.000000     C
    C   1.0     0.973818     0.672126     0.967166  Biso 1.000000     C
    C   1.0     0.449145     0.744067     0.809818  Biso 1.000000     C
    C   1.0     0.949169     0.743889     0.809882  Biso 1.000000     C
    C   1.0     0.131464     0.733381     0.819952  Biso 1.000000     C
    C   1.0     0.631369     0.733175     0.820001  Biso 1.000000     C
    C   1.0     0.093320     0.767367     0.874414  Biso 1.000000     C
    C   1.0     0.593247     0.767180     0.874464  Biso 1.000000     C
    C   1.0     0.399388     0.680809     0.894659  Biso 1.000000     C
    C   1.0     0.899451     0.680527     0.894730  Biso 1.000000     C
    C   1.0     0.189765     0.663281     0.723798  Biso 1.000000     C
    C   1.0     0.689736     0.663120     0.723852  Biso 1.000000     C
    N   1.0     0.483798     0.274082     0.508988  Biso 1.000000     N
    N   1.0     0.983720     0.274095     0.508926  Biso 1.000000     N
    N   1.0     0.087615     0.197085     0.575470  Biso 1.000000     N
    N   1.0     0.587779     0.197089     0.575443  Biso 1.000000     N
    N   1.0     0.423292     0.183285     0.429191  Biso 1.000000     N
    N   1.0     0.923284     0.183297     0.429076  Biso 1.000000     N
    N   1.0     0.101593     0.026560     0.619052  Biso 1.000000     N
    N   1.0     0.601732     0.026554     0.618958  Biso 1.000000     N
    N   1.0     0.237980     0.508636     0.216793  Biso 1.000000     N
    N   1.0     0.738069     0.508604     0.216775  Biso 1.000000     N
    N   1.0     0.375286     0.575149     0.227355  Biso 1.000000     N
    N   1.0     0.875452     0.575222     0.227244  Biso 1.000000     N
    N   1.0     0.137670     0.429529     0.387149  Biso 1.000000     N
    N   1.0     0.637742     0.429546     0.387104  Biso 1.000000     N
    N   1.0     0.410887     0.618753     0.354560  Biso 1.000000     N
    N   1.0     0.911028     0.618809     0.354477  Biso 1.000000     N
    N   1.0     0.346838     0.216827     0.273676  Biso 1.000000     N
    N   1.0     0.846792     0.216659     0.273722  Biso 1.000000     N
    N   1.0     0.489300     0.226706     0.196414  Biso 1.000000     N
    N   1.0     0.989272     0.226734     0.196374  Biso 1.000000     N
    N   1.0     0.331535     0.386852     0.182969  Biso 1.000000     N
    N   1.0     0.831460     0.386660     0.183024  Biso 1.000000     N
    N   1.0     0.088390     0.354987     0.026148  Biso 1.000000     N
    N   1.0     0.588486     0.354770     0.026197  Biso 1.000000     N
    N   1.0     0.016277     0.725919     0.491087  Biso 1.000000     N
    N   1.0     0.516199     0.725931     0.491025  Biso 1.000000     N
    N   1.0     0.412219     0.802924     0.424567  Biso 1.000000     N
    N   1.0     0.912381     0.802929     0.424543  Biso 1.000000     N
    N   1.0     0.076713     0.816717     0.570935  Biso 1.000000     N
    N   1.0     0.576706     0.816728     0.570821  Biso 1.000000     N
    N   1.0     0.398266     0.973460     0.381055  Biso 1.000000     N
    N   1.0     0.898403     0.973453     0.380962  Biso 1.000000     N
    N   1.0     0.261928     0.491410     0.783236  Biso 1.000000     N
    N   1.0     0.762016     0.491378     0.783219  Biso 1.000000     N
    N   1.0     0.124544     0.424791     0.772769  Biso 1.000000     N
    N   1.0     0.624710     0.424864     0.772657  Biso 1.000000     N
    N   1.0     0.362255     0.570468     0.612907  Biso 1.000000     N
    N   1.0     0.862327     0.570484     0.612863  Biso 1.000000     N
    N   1.0     0.088969     0.381205     0.645535  Biso 1.000000     N
    N   1.0     0.589111     0.381261     0.645452  Biso 1.000000     N
    N   1.0     0.153205     0.783355     0.726289  Biso 1.000000     N
    N   1.0     0.653159     0.783186     0.726337  Biso 1.000000     N
    N   1.0     0.010725     0.773280     0.803638  Biso 1.000000     N
    N   1.0     0.510697     0.773307     0.803599  Biso 1.000000     N
    N   1.0     0.168537     0.613354     0.816988  Biso 1.000000     N
    N   1.0     0.668462     0.613160     0.817043  Biso 1.000000     N
    N   1.0     0.411511     0.645242     0.973816  Biso 1.000000     N
    N   1.0     0.911607     0.645027     0.973864  Biso 1.000000     N
    O   1.0     0.242322     0.697589     0.389682  Biso 1.000000     O
    O   1.0     0.742439     0.698032     0.389368  Biso 1.000000     O
    O   1.0     0.186853     0.743400     0.491246  Biso 1.000000     O
    O   1.0     0.686935     0.743519     0.491226  Biso 1.000000     O
    O   1.0     0.218101     0.610016     0.554356  Biso 1.000000     O
    O   1.0     0.718500     0.610398     0.553968  Biso 1.000000     O
    O   1.0     0.132081     0.603305     0.493183  Biso 1.000000     O
    O   1.0     0.632302     0.603372     0.493151  Biso 1.000000     O
    O   1.0     0.437594     0.389886     0.912290  Biso 1.000000     O
    O   1.0     0.937340     0.389588     0.912554  Biso 1.000000     O
    O   1.0     0.432679     0.491558     0.765700  Biso 1.000000     O
    O   1.0     0.932523     0.491001     0.765793  Biso 1.000000     O
    O   1.0     0.495581     0.554621     0.836211  Biso 1.000000     O
    O   1.0     0.995186     0.554361     0.836351  Biso 1.000000     O
    O   1.0     0.378874     0.492892     0.904257  Biso 1.000000     O
    O   1.0     0.878460     0.492462     0.904161  Biso 1.000000     O
    O   1.0     0.393070     0.912026     0.699691  Biso 1.000000     O
    O   1.0     0.892974     0.911848     0.699888  Biso 1.000000     O
    O   1.0     0.315353     0.765550     0.742515  Biso 1.000000     O
    O   1.0     0.815339     0.765434     0.742410  Biso 1.000000     O
    O   1.0     0.414455     0.836599     0.610416  Biso 1.000000     O
    O   1.0     0.914545     0.836622     0.610452  Biso 1.000000     O
    O   1.0     0.331690     0.904336     0.603032  Biso 1.000000     O
    O   1.0     0.831775     0.904338     0.602974  Biso 1.000000     O
    O   1.0     0.257558     0.301984     0.610643  Biso 1.000000     O
    O   1.0     0.757675     0.302423     0.610330  Biso 1.000000     O
    O   1.0     0.313062     0.256494     0.508787  Biso 1.000000     O
    O   1.0     0.813145     0.256615     0.508764  Biso 1.000000     O
    O   1.0     0.281498     0.389616     0.446043  Biso 1.000000     O
    O   1.0     0.781896     0.389998     0.445656  Biso 1.000000     O
    O   1.0     0.367695     0.396642     0.506861  Biso 1.000000     O
    O   1.0     0.867916     0.396708     0.506830  Biso 1.000000     O
    O   1.0     0.062657     0.610427     0.087458  Biso 1.000000     O
    O   1.0     0.562403     0.610125     0.087722  Biso 1.000000     O
    O   1.0     0.067474     0.509013     0.234219  Biso 1.000000     O
    O   1.0     0.567317     0.508454     0.234312  Biso 1.000000     O
    O   1.0     0.004811     0.445654     0.163660  Biso 1.000000     O
    O   1.0     0.504415     0.445391     0.163801  Biso 1.000000     O
    O   1.0     0.121537     0.507553     0.095851  Biso 1.000000     O
    O   1.0     0.621122     0.507119     0.095756  Biso 1.000000     O
    O   1.0     0.107022     0.088165     0.300126  Biso 1.000000     O
    O   1.0     0.606929     0.087989     0.300318  Biso 1.000000     O
    O   1.0     0.184656     0.234579     0.257606  Biso 1.000000     O
    O   1.0     0.684646     0.234464     0.257496  Biso 1.000000     O
    O   1.0     0.085449     0.163391     0.389562  Biso 1.000000     O
    O   1.0     0.585544     0.163415     0.389594  Biso 1.000000     O
    O   1.0     0.168220     0.095675     0.397043  Biso 1.000000     O
    O   1.0     0.668308     0.095678     0.396978  Biso 1.000000     O
   Cl   1.0     0.194323     0.663469     0.482340  Biso 1.000000    Cl
   Cl   1.0     0.694530     0.663721     0.482147  Biso 1.000000    Cl
   Cl   1.0     0.435772     0.482448     0.854501  Biso 1.000000    Cl
   Cl   1.0     0.935466     0.482066     0.854598  Biso 1.000000    Cl
   Cl   1.0     0.363180     0.854540     0.663788  Biso 1.000000    Cl
   Cl   1.0     0.863198     0.854475     0.663806  Biso 1.000000    Cl
   Cl   1.0     0.305468     0.336293     0.517864  Biso 1.000000    Cl
   Cl   1.0     0.805674     0.336544     0.517672  Biso 1.000000    Cl
   Cl   1.0     0.064531     0.517948     0.145414  Biso 1.000000    Cl
   Cl   1.0     0.564224     0.517564     0.145512  Biso 1.000000    Cl
   Cl   1.0     0.136797     0.145539     0.336209  Biso 1.000000    Cl
   Cl   1.0     0.636818     0.145474     0.336222  Biso 1.000000    Cl
   Ag   1.0     0.065726     0.345333     0.542291  Biso 1.000000    Ag
   Ag   1.0     0.565833     0.345339     0.542258  Biso 1.000000    Ag
   Ag   1.0     0.336649     0.541524     0.112446  Biso 1.000000    Ag
   Ag   1.0     0.836748     0.541382     0.112513  Biso 1.000000    Ag
   Ag   1.0     0.393121     0.112585     0.344725  Biso 1.000000    Ag
   Ag   1.0     0.893178     0.112513     0.344666  Biso 1.000000    Ag
   Ag   1.0     0.434165     0.654674     0.457753  Biso 1.000000    Ag
   Ag   1.0     0.934271     0.654681     0.457721  Biso 1.000000    Ag
   Ag   1.0     0.163249     0.458632     0.887498  Biso 1.000000    Ag
   Ag   1.0     0.663347     0.458489     0.887566  Biso 1.000000    Ag
   Ag   1.0     0.106819     0.887501     0.655346  Biso 1.000000    Ag
   Ag   1.0     0.606877     0.887428     0.655287  Biso 1.000000    Ag
