#======================================================================

# CRYSTAL DATA

#----------------------------------------------------------------------

data_VESTA_phase_1


_pd_phase_name                         MOF
_cell_length_a                         15.05000
_cell_length_b                         12.56100
_cell_length_c                         12.56700
_cell_angle_alpha                      94.90800
_cell_angle_beta                       97.26800
_cell_angle_gamma                      82.58500
_symmetry_space_group_name_H-M         "P 1"
_symmetry_Int_Tables_number            1

loop_
_symmetry_equiv_pos_as_xyz
   "x, y, z"

loop_
   _atom_site_label
   _atom_site_occupancy
   _atom_site_fract_x
   _atom_site_fract_y
   _atom_site_fract_z
   _atom_site_adp_type
   _atom_site_B_iso_or_equiv
   _atom_site_type_symbol
    H   1.0     0.223833     0.416863     0.532001  Biso 1.000000     H
    H   1.0     0.723847     0.416802     0.531970  Biso 1.000000     H
    H   1.0     0.473685     0.467871     0.583135  Biso 1.000000     H
    H   1.0     0.973646     0.467910     0.583083  Biso 1.000000     H
    H   1.0     0.026334     0.532108     0.416894  Biso 1.000000     H
    H   1.0     0.526387     0.532071     0.416881  Biso 1.000000     H
    H   1.0     0.276215     0.583171     0.467965  Biso 1.000000     H
    H   1.0     0.776242     0.583154     0.467958  Biso 1.000000     H
    C   1.0     0.218026     0.529252     0.665960  Biso 1.000000     C
    C   1.0     0.718025     0.529193     0.665932  Biso 1.000000     C
    C   1.0     0.180974     0.350350     0.662256  Biso 1.000000     C
    C   1.0     0.680995     0.350278     0.662222  Biso 1.000000     C
    C   1.0     0.162270     0.469773     0.807109  Biso 1.000000     C
    C   1.0     0.662214     0.469713     0.807049  Biso 1.000000     C
    C   1.0     0.247061     0.701427     0.649617  Biso 1.000000     C
    C   1.0     0.747106     0.701367     0.649683  Biso 1.000000     C
    C   1.0     0.158619     0.170613     0.637491  Biso 1.000000     C
    C   1.0     0.658698     0.170539     0.637478  Biso 1.000000     C
    C   1.0     0.101450     0.424126     0.955976  Biso 1.000000     C
    C   1.0     0.601397     0.424110     0.955937  Biso 1.000000     C
    C   1.0     0.467677     0.334131     0.470510  Biso 1.000000     C
    C   1.0     0.967693     0.334153     0.470459  Biso 1.000000     C
    C   1.0     0.430823     0.337557     0.649508  Biso 1.000000     C
    C   1.0     0.930838     0.337572     0.649458  Biso 1.000000     C
    C   1.0     0.411918     0.192958     0.529889  Biso 1.000000     C
    C   1.0     0.912010     0.192944     0.529873  Biso 1.000000     C
    C   1.0    -0.003241     0.350576     0.298342  Biso 1.000000     C
    C   1.0     0.496745     0.350562     0.298401  Biso 1.000000     C
    C   1.0     0.408784     0.362139     0.829409  Biso 1.000000     C
    C   1.0     0.908781     0.362218     0.829351  Biso 1.000000     C
    C   1.0     0.351306     0.044028     0.575558  Biso 1.000000     C
    C   1.0     0.851327     0.043990     0.575425  Biso 1.000000     C
    C   1.0     0.032338     0.665841     0.529534  Biso 1.000000     C
    C   1.0     0.532359     0.665836     0.529479  Biso 1.000000     C
    C   1.0     0.069216     0.662416     0.350542  Biso 1.000000     C
    C   1.0     0.569199     0.662396     0.350472  Biso 1.000000     C
    C   1.0     0.088073     0.807030     0.470155  Biso 1.000000     C
    C   1.0     0.588085     0.807012     0.470062  Biso 1.000000     C
    C   1.0     0.503242     0.649455     0.701584  Biso 1.000000     C
    C   1.0     0.000000     0.649409     0.701655  Biso 1.000000     C
    C   1.0     0.091319     0.637796     0.170656  Biso 1.000000     C
    C   1.0     0.591194     0.637763     0.170564  Biso 1.000000     C
    C   1.0     0.148669     0.955977     0.424492  Biso 1.000000     C
    C   1.0     0.648792     0.955951     0.424503  Biso 1.000000     C
    C   1.0     0.282026     0.470754     0.334027  Biso 1.000000     C
    C   1.0     0.782021     0.470793     0.333965  Biso 1.000000     C
    C   1.0     0.319063     0.649659     0.337690  Biso 1.000000     C
    C   1.0     0.819045     0.649710     0.337694  Biso 1.000000     C
    C   1.0     0.337801     0.530200     0.192867  Biso 1.000000     C
    C   1.0     0.837786     0.530309     0.192839  Biso 1.000000     C
    C   1.0     0.252939     0.298601     0.350391  Biso 1.000000     C
    C   1.0     0.752996     0.298595     0.350232  Biso 1.000000     C
    C   1.0     0.341390     0.829416     0.362449  Biso 1.000000     C
    C   1.0     0.841388     0.829430     0.362456  Biso 1.000000     C
    C   1.0     0.398570     0.575815     0.043953  Biso 1.000000     C
    C   1.0     0.898668     0.575935     0.044015  Biso 1.000000     C
    N   1.0     0.210029     0.430549     0.611860  Biso 1.000000     N
    N   1.0     0.710053     0.430487     0.611829  Biso 1.000000     N
    N   1.0     0.157979     0.368386     0.761771  Biso 1.000000     N
    N   1.0     0.658046     0.368290     0.761754  Biso 1.000000     N
    N   1.0     0.194087     0.550608     0.764579  Biso 1.000000     N
    N   1.0     0.694032     0.550545     0.764522  Biso 1.000000     N
    N   1.0     0.250074     0.601784     0.611334  Biso 1.000000     N
    N   1.0     0.750119     0.601738     0.611363  Biso 1.000000     N
    N   1.0     0.246435     0.794071     0.674543  Biso 1.000000     N
    N   1.0     0.746449     0.794006     0.674665  Biso 1.000000     N
    N   1.0     0.173090     0.258063     0.600918  Biso 1.000000     N
    N   1.0     0.673181     0.257976     0.600881  Biso 1.000000     N
    N   1.0     0.144368     0.084705     0.659738  Biso 1.000000     N
    N   1.0     0.644440     0.084642     0.659743  Biso 1.000000     N
    N   1.0     0.129469     0.496585     0.904054  Biso 1.000000     N
    N   1.0     0.629327     0.496573     0.903934  Biso 1.000000     N
    N   1.0     0.074259     0.370078     0.014232  Biso 1.000000     N
    N   1.0     0.574264     0.370056     0.014235  Biso 1.000000     N
    N   1.0     0.459738     0.388096     0.569291  Biso 1.000000     N
    N   1.0     0.959738     0.388120     0.569231  Biso 1.000000     N
    N   1.0     0.407785     0.238099     0.631356  Biso 1.000000     N
    N   1.0     0.907911     0.238065     0.631350  Biso 1.000000     N
    N   1.0     0.443697     0.235576     0.449063  Biso 1.000000     N
    N   1.0     0.943754     0.235581     0.449036  Biso 1.000000     N
    N   1.0    -0.000226     0.388798     0.397952  Biso 1.000000     N
    N   1.0     0.499761     0.388782     0.398013  Biso 1.000000     N
    N   1.0    -0.003936     0.325627     0.205740  Biso 1.000000     N
    N   1.0     0.496112     0.325635     0.205801  Biso 1.000000     N
    N   1.0     0.423146     0.398722     0.741932  Biso 1.000000     N
    N   1.0     0.923179     0.398765     0.741871  Biso 1.000000     N
    N   1.0     0.394609     0.339958     0.915362  Biso 1.000000     N
    N   1.0     0.894580     0.340081     0.915306  Biso 1.000000     N
    N   1.0     0.379124     0.096089     0.503057  Biso 1.000000     N
    N   1.0     0.879143     0.096124     0.502983  Biso 1.000000     N
    N   1.0     0.324329     0.985668     0.629647  Biso 1.000000     N
    N   1.0     0.824354     0.985540     0.629420  Biso 1.000000     N
    N   1.0     0.040266     0.611890     0.430745  Biso 1.000000     N
    N   1.0     0.540315     0.611854     0.430716  Biso 1.000000     N
    N   1.0     0.092235     0.761883     0.368695  Biso 1.000000     N
    N   1.0     0.592160     0.761888     0.368582  Biso 1.000000     N
    N   1.0     0.056281     0.764414     0.550970  Biso 1.000000     N
    N   1.0     0.556341     0.764388     0.550908  Biso 1.000000     N
    N   1.0     0.500254     0.611208     0.601985  Biso 1.000000     N
    N   1.0     0.000000     0.611192     0.602038  Biso 1.000000     N
    N   1.0     0.503909     0.674419     0.794180  Biso 1.000000     N
    N   1.0     0.000000     0.674358     0.794258  Biso 1.000000     N
    N   1.0     0.076902     0.601245     0.258125  Biso 1.000000     N
    N   1.0     0.576831     0.601205     0.258054  Biso 1.000000     N
    N   1.0     0.105533     0.659940     0.084707  Biso 1.000000     N
    N   1.0     0.605365     0.659921     0.084605  Biso 1.000000     N
    N   1.0     0.120839     0.903918     0.496985  Biso 1.000000     N
    N   1.0     0.620980     0.903816     0.496946  Biso 1.000000     N
    N   1.0     0.175655     0.014338     0.370412  Biso 1.000000     N
    N   1.0     0.675763     0.014394     0.370498  Biso 1.000000     N
    N   1.0     0.290032     0.569462     0.388114  Biso 1.000000     N
    N   1.0     0.790016     0.569485     0.388090  Biso 1.000000     N
    N   1.0     0.342077     0.631599     0.238185  Biso 1.000000     N
    N   1.0     0.841978     0.631719     0.238156  Biso 1.000000     N
    N   1.0     0.305992     0.449374     0.235423  Biso 1.000000     N
    N   1.0     0.805986     0.449460     0.235360  Biso 1.000000     N
    N   1.0     0.249961     0.398245     0.388664  Biso 1.000000     N
    N   1.0     0.749968     0.398226     0.388546  Biso 1.000000     N
    N   1.0     0.253536     0.205958     0.325483  Biso 1.000000     N
    N   1.0     0.753657     0.205953     0.325266  Biso 1.000000     N
    N   1.0     0.326957     0.741950     0.399018  Biso 1.000000     N
    N   1.0     0.826888     0.741999     0.399051  Biso 1.000000     N
    N   1.0     0.355613     0.915339     0.340207  Biso 1.000000     N
    N   1.0     0.855671     0.915318     0.340195  Biso 1.000000     N
    N   1.0     0.370593     0.503361     0.095921  Biso 1.000000     N
    N   1.0     0.870694     0.503466     0.095966  Biso 1.000000     N
    N   1.0     0.425699     0.629873     0.985654  Biso 1.000000     N
    N   1.0     0.925864     0.629991     0.985773  Biso 1.000000     N
   Cu   1.0     0.453075     0.356205     0.059432  Biso 1.000000    Cu
   Cu   1.0     0.953054     0.356260     0.059371  Biso 1.000000    Cu
   Cu   1.0     0.203292     0.940535     0.643784  Biso 1.000000    Cu
   Cu   1.0     0.703357     0.940465     0.643781  Biso 1.000000    Cu
   Cu   1.0     0.296677     0.059489     0.356234  Biso 1.000000    Cu
   Cu   1.0     0.796748     0.059497     0.356159  Biso 1.000000    Cu
   Cu   1.0     0.047080     0.643778     0.940618  Biso 1.000000    Cu
   Cu   1.0     0.546904     0.643750     0.940537  Biso 1.000000    Cu
