#======================================================================

# CRYSTAL DATA

#----------------------------------------------------------------------

data_VESTA_phase_1


_pd_phase_name                         MOF
_cell_length_a                         14.23900
_cell_length_b                         12.96000
_cell_length_c                         12.96000
_cell_angle_alpha                      97.77900
_cell_angle_beta                       96.29900
_cell_angle_gamma                      83.69100
_symmetry_space_group_name_H-M         "P 1"
_symmetry_Int_Tables_number            1

loop_
_symmetry_equiv_pos_as_xyz
   "x, y, z"

loop_
   _atom_site_label
   _atom_site_occupancy
   _atom_site_fract_x
   _atom_site_fract_y
   _atom_site_fract_z
   _atom_site_adp_type
   _atom_site_B_iso_or_equiv
   _atom_site_type_symbol
    H   1.0     0.226465     0.412089     0.535157  Biso 1.000000     H
    H   1.0     0.726504     0.412077     0.535201  Biso 1.000000     H
    H   1.0     0.023608     0.535212     0.412076  Biso 1.000000     H
    H   1.0     0.523469     0.535219     0.412042  Biso 1.000000     H
    H   1.0     0.273522     0.587959     0.464818  Biso 1.000000     H
    H   1.0     0.773560     0.587947     0.464862  Biso 1.000000     H
    H   1.0     0.476552     0.464818     0.587976  Biso 1.000000     H
    H   1.0     0.976418     0.464823     0.587944  Biso 1.000000     H
    C   1.0     0.219735     0.525454     0.666356  Biso 1.000000     C
    C   1.0     0.719804     0.525447     0.666397  Biso 1.000000     C
    C   1.0     0.189703     0.348113     0.665567  Biso 1.000000     C
    C   1.0     0.689761     0.348111     0.665617  Biso 1.000000     C
    C   1.0     0.170905     0.468906     0.808802  Biso 1.000000     C
    C   1.0     0.671010     0.468901     0.808862  Biso 1.000000     C
    C   1.0     0.247769     0.692869     0.660187  Biso 1.000000     C
    C   1.0     0.747867     0.692855     0.660208  Biso 1.000000     C
    C   1.0     0.166244     0.175696     0.652602  Biso 1.000000     C
    C   1.0     0.666305     0.175679     0.652605  Biso 1.000000     C
    C   1.0     0.118520     0.430418     0.962844  Biso 1.000000     C
    C   1.0     0.618593     0.430484     0.962940  Biso 1.000000     C
    C   1.0     0.030238     0.666397     0.525463  Biso 1.000000     C
    C   1.0     0.530246     0.666411     0.525405  Biso 1.000000     C
    C   1.0     0.060340     0.665654     0.348139  Biso 1.000000     C
    C   1.0     0.560255     0.665596     0.348050  Biso 1.000000     C
    C   1.0     0.078999     0.808890     0.468951  Biso 1.000000     C
    C   1.0     0.579116     0.808819     0.468838  Biso 1.000000     C
    C   1.0     0.502177     0.660251     0.692823  Biso 1.000000     C
    C   1.0     0.000000     0.660196     0.692866  Biso 1.000000     C
    C   1.0     0.083797     0.652709     0.175705  Biso 1.000000     C
    C   1.0     0.583713     0.652598     0.175627  Biso 1.000000     C
    C   1.0     0.131391     0.962955     0.430532  Biso 1.000000     C
    C   1.0     0.631531     0.962873     0.430368  Biso 1.000000     C
    C   1.0     0.280224     0.474588     0.333624  Biso 1.000000     C
    C   1.0     0.780291     0.474581     0.333664  Biso 1.000000     C
    C   1.0     0.310267     0.651924     0.334403  Biso 1.000000     C
    C   1.0     0.810323     0.651922     0.334453  Biso 1.000000     C
    C   1.0     0.329017     0.531134     0.191158  Biso 1.000000     C
    C   1.0     0.829120     0.531129     0.191218  Biso 1.000000     C
    C   1.0     0.252158     0.307181     0.339811  Biso 1.000000     C
    C   1.0     0.752255     0.307167     0.339831  Biso 1.000000     C
    C   1.0     0.333719     0.824357     0.347414  Biso 1.000000     C
    C   1.0     0.833780     0.824340     0.347416  Biso 1.000000     C
    C   1.0     0.381431     0.569551     0.037079  Biso 1.000000     C
    C   1.0     0.881504     0.569617     0.037175  Biso 1.000000     C
    C   1.0     0.469768     0.333629     0.474610  Biso 1.000000     C
    C   1.0     0.969791     0.333636     0.474558  Biso 1.000000     C
    C   1.0     0.439759     0.334443     0.651966  Biso 1.000000     C
    C   1.0     0.939690     0.334380     0.651881  Biso 1.000000     C
    C   1.0     0.420902     0.191219     0.531179  Biso 1.000000     C
    C   1.0     0.921029     0.191144     0.531069  Biso 1.000000     C
    C   1.0    -0.002164     0.339840     0.307153  Biso 1.000000     C
    C   1.0     0.497848     0.339784     0.307197  Biso 1.000000     C
    C   1.0     0.416313     0.347438     0.824393  Biso 1.000000     C
    C   1.0     0.916227     0.347327     0.824314  Biso 1.000000     C
    C   1.0     0.368494     0.037162     0.569652  Biso 1.000000     C
    C   1.0     0.868633     0.037080     0.569487  Biso 1.000000     C
    N   1.0     0.214068     0.426527     0.613755  Biso 1.000000     N
    N   1.0     0.714115     0.426522     0.613801  Biso 1.000000     N
    N   1.0     0.169677     0.368548     0.765081  Biso 1.000000     N
    N   1.0     0.669784     0.368539     0.765148  Biso 1.000000     N
    N   1.0     0.197107     0.548444     0.764166  Biso 1.000000     N
    N   1.0     0.697173     0.548448     0.764205  Biso 1.000000     N
    N   1.0     0.248459     0.597707     0.612863  Biso 1.000000     N
    N   1.0     0.748524     0.597691     0.612891  Biso 1.000000     N
    N   1.0     0.249874     0.780982     0.697504  Biso 1.000000     N
    N   1.0     0.749997     0.780971     0.697508  Biso 1.000000     N
    N   1.0     0.184539     0.253978     0.608558  Biso 1.000000     N
    N   1.0     0.684529     0.254001     0.608578  Biso 1.000000     N
    N   1.0     0.148379     0.099236     0.684473  Biso 1.000000     N
    N   1.0     0.648498     0.099182     0.684450  Biso 1.000000     N
    N   1.0     0.140917     0.498291     0.906407  Biso 1.000000     N
    N   1.0     0.641039     0.498302     0.906471  Biso 1.000000     N
    N   1.0     0.096157     0.381401     0.025061  Biso 1.000000     N
    N   1.0     0.596183     0.381563     0.025213  Biso 1.000000     N
    N   1.0     0.035992     0.613809     0.426539  Biso 1.000000     N
    N   1.0     0.535861     0.613813     0.426469  Biso 1.000000     N
    N   1.0     0.080269     0.765195     0.368585  Biso 1.000000     N
    N   1.0     0.580308     0.765096     0.368478  Biso 1.000000     N
    N   1.0     0.052788     0.764230     0.548468  Biso 1.000000     N
    N   1.0     0.552942     0.764191     0.548399  Biso 1.000000     N
    N   1.0     0.501506     0.612934     0.597661  Biso 1.000000     N
    N   1.0     0.000000     0.612879     0.597700  Biso 1.000000     N
    N   1.0     0.500048     0.697558     0.780937  Biso 1.000000     N
    N   1.0     0.000000     0.697499     0.780981  Biso 1.000000     N
    N   1.0     0.065590     0.608648     0.254011  Biso 1.000000     N
    N   1.0     0.565438     0.608565     0.253927  Biso 1.000000     N
    N   1.0     0.101591     0.684585     0.099216  Biso 1.000000     N
    N   1.0     0.601548     0.684461     0.099149  Biso 1.000000     N
    N   1.0     0.108940     0.906505     0.498364  Biso 1.000000     N
    N   1.0     0.609125     0.906409     0.498210  Biso 1.000000     N
    N   1.0     0.153803     0.025180     0.381578  Biso 1.000000     N
    N   1.0     0.653906     0.025128     0.381421  Biso 1.000000     N
    N   1.0     0.285910     0.573513     0.386218  Biso 1.000000     N
    N   1.0     0.785957     0.573509     0.386264  Biso 1.000000     N
    N   1.0     0.330237     0.631497     0.234870  Biso 1.000000     N
    N   1.0     0.830346     0.631488     0.234937  Biso 1.000000     N
    N   1.0     0.302848     0.451589     0.235813  Biso 1.000000     N
    N   1.0     0.802916     0.451592     0.235852  Biso 1.000000     N
    N   1.0     0.251499     0.402345     0.387127  Biso 1.000000     N
    N   1.0     0.751565     0.402329     0.387156  Biso 1.000000     N
    N   1.0     0.250029     0.219065     0.302511  Biso 1.000000     N
    N   1.0     0.750150     0.219054     0.302514  Biso 1.000000     N
    N   1.0     0.315494     0.746035     0.391440  Biso 1.000000     N
    N   1.0     0.815486     0.746058     0.391461  Biso 1.000000     N
    N   1.0     0.351527     0.900853     0.315569  Biso 1.000000     N
    N   1.0     0.851644     0.900800     0.315546  Biso 1.000000     N
    N   1.0     0.358985     0.501734     0.093548  Biso 1.000000     N
    N   1.0     0.859108     0.501745     0.093612  Biso 1.000000     N
    N   1.0     0.403841     0.618473     0.974806  Biso 1.000000     N
    N   1.0     0.903867     0.618634     0.974958  Biso 1.000000     N
    N   1.0     0.464161     0.386223     0.573549  Biso 1.000000     N
    N   1.0     0.964034     0.386227     0.573480  Biso 1.000000     N
    N   1.0     0.419726     0.234936     0.631543  Biso 1.000000     N
    N   1.0     0.919751     0.234842     0.631433  Biso 1.000000     N
    N   1.0     0.447092     0.235841     0.451623  Biso 1.000000     N
    N   1.0     0.947232     0.235807     0.451550  Biso 1.000000     N
    N   1.0    -0.001515     0.387157     0.402319  Biso 1.000000     N
    N   1.0     0.498521     0.387101     0.402359  Biso 1.000000     N
    N   1.0    -0.000030     0.302537     0.219038  Biso 1.000000     N
    N   1.0     0.499977     0.302477     0.219083  Biso 1.000000     N
    N   1.0     0.434588     0.391470     0.746092  Biso 1.000000     N
    N   1.0     0.934434     0.391388     0.746008  Biso 1.000000     N
    N   1.0     0.398477     0.315575     0.900870  Biso 1.000000     N
    N   1.0     0.898433     0.315451     0.900802  Biso 1.000000     N
    N   1.0     0.390900     0.093626     0.501810  Biso 1.000000     N
    N   1.0     0.891085     0.093531     0.501654  Biso 1.000000     N
    N   1.0     0.346119     0.974908     0.618598  Biso 1.000000     N
    N   1.0     0.846222     0.974855     0.618440  Biso 1.000000     N
   Cd   1.0     0.453719     0.342919     0.064455  Biso 1.000000    Cd
   Cd   1.0     0.953703     0.342873     0.064371  Biso 1.000000    Cd
   Cd   1.0     0.296270     0.064430     0.342970  Biso 1.000000    Cd
   Cd   1.0     0.796394     0.064382     0.342852  Biso 1.000000    Cd
   Cd   1.0     0.046321     0.657163     0.935648  Biso 1.000000    Cd
   Cd   1.0     0.546305     0.657117     0.935565  Biso 1.000000    Cd
   Cd   1.0     0.203630     0.935655     0.657167  Biso 1.000000    Cd
   Cd   1.0     0.703756     0.935606     0.657049  Biso 1.000000    Cd
