#======================================================================

# CRYSTAL DATA

#----------------------------------------------------------------------

data_VESTA_phase_1


_pd_phase_name                         MOF
_cell_length_a                         14.01000
_cell_length_b                         16.78700
_cell_length_c                         16.81800
_cell_angle_alpha                      103.80400
_cell_angle_beta                       109.77500
_cell_angle_gamma                      109.72100
_symmetry_space_group_name_H-M         "P 1"
_symmetry_Int_Tables_number            1

loop_
_symmetry_equiv_pos_as_xyz
   "x, y, z"

loop_
   _atom_site_label
   _atom_site_occupancy
   _atom_site_fract_x
   _atom_site_fract_y
   _atom_site_fract_z
   _atom_site_adp_type
   _atom_site_B_iso_or_equiv
   _atom_site_type_symbol
    H   1.0     0.648798     0.476401     0.108433  Biso 1.000000     H
    H   1.0     0.127586     0.063642     0.041537  Biso 1.000000     H
    H   1.0     0.352140     0.487092     0.551207  Biso 1.000000     H
    H   1.0     0.057763     0.344322     0.166458  Biso 1.000000     H
    H   1.0     0.854606     0.249102     0.043274  Biso 1.000000     H
    H   1.0     0.977171     0.119789     0.874469  Biso 1.000000     H
    H   1.0     0.176174     0.224238     0.001927  Biso 1.000000     H
    H   1.0     0.291717     0.430582     0.047590  Biso 1.000000     H
    H   1.0     0.505896     0.162639     0.138392  Biso 1.000000     H
    H   1.0     0.851574     0.891870     0.524035  Biso 1.000000     H
    H   1.0     0.372721     0.958966     0.936638  Biso 1.000000     H
    H   1.0     0.147758     0.448679     0.511762  Biso 1.000000     H
    H   1.0     0.442463     0.833709     0.656180  Biso 1.000000     H
    H   1.0     0.645661     0.957003     0.751296  Biso 1.000000     H
    H   1.0     0.523205     0.126126     0.880502  Biso 1.000000     H
    H   1.0     0.324144     0.998556     0.776185  Biso 1.000000     H
    H   1.0     0.208383     0.952275     0.569432  Biso 1.000000     H
    H   1.0     0.994462     0.861978     0.837806  Biso 1.000000     H
    H   1.0     0.351271     0.523623     0.891595  Biso 1.000000     H
    H   1.0     0.872470     0.936385     0.958502  Biso 1.000000     H
    H   1.0     0.647921     0.512951     0.448824  Biso 1.000000     H
    H   1.0     0.942294     0.655703     0.833573  Biso 1.000000     H
    H   1.0     0.145455     0.750910     0.956757  Biso 1.000000     H
    H   1.0     0.022908     0.880245     0.125568  Biso 1.000000     H
    H   1.0     0.823903     0.775810     0.998107  Biso 1.000000     H
    H   1.0     0.708346     0.569431     0.952431  Biso 1.000000     H
    H   1.0     0.494160     0.837397     0.861641  Biso 1.000000     H
    H   1.0     0.148504     0.108165     0.475986  Biso 1.000000     H
    H   1.0     0.627338     0.041071     0.063394  Biso 1.000000     H
    H   1.0     0.852301     0.551355     0.488280  Biso 1.000000     H
    H   1.0     0.557603     0.166321     0.343858  Biso 1.000000     H
    H   1.0     0.354404     0.043026     0.248735  Biso 1.000000     H
    H   1.0     0.476870     0.873922     0.119507  Biso 1.000000     H
    H   1.0     0.675931     0.001491     0.223839  Biso 1.000000     H
    H   1.0     0.791692     0.047756     0.430585  Biso 1.000000     H
    H   1.0     0.005595     0.138053     0.162228  Biso 1.000000     H
    C   1.0     0.459197     0.422869     0.128752  Biso 1.000000     C
    C   1.0     0.478621     0.462845     0.062441  Biso 1.000000     C
    C   1.0     0.583792     0.486809     0.060709  Biso 1.000000     C
    C   1.0     0.393092     0.476335     0.000000  Biso 1.000000     C
    C   1.0     0.348380     0.182084     0.145723  Biso 1.000000     C
    C   1.0     0.299926     0.092716     0.067791  Biso 1.000000     C
    C   1.0     0.180971     0.040674     0.018023  Biso 1.000000     C
    C   1.0     0.370651     0.062167     0.039316  Biso 1.000000     C
    C   1.0     0.260342     0.380716     0.376469  Biso 1.000000     C
    C   1.0     0.384107     0.441543     0.437034  Biso 1.000000     C
    C   1.0     0.468135     0.447593     0.406367  Biso 1.000000     C
    C   1.0     0.418019     0.493426     0.529322  Biso 1.000000     C
    C   1.0     0.036306     0.295841     0.099707  Biso 1.000000     C
    C   1.0     0.924123     0.242666     0.031907  Biso 1.000000     C
    C   1.0     0.901071     0.176670     0.949693  Biso 1.000000     C
    C   1.0     0.992811     0.170629     0.937532  Biso 1.000000     C
    C   1.0     0.102829     0.227898     0.008273  Biso 1.000000     C
    C   1.0     0.041069     0.871323     0.577428  Biso 1.000000     C
    C   1.0     0.021566     0.937651     0.537362  Biso 1.000000     C
    C   1.0     0.916447     0.939475     0.513438  Biso 1.000000     C
    C   1.0     0.106940    -0.000651     0.523618  Biso 1.000000     C
    C   1.0     0.151905     0.854781     0.818273  Biso 1.000000     C
    C   1.0     0.200387     0.932651     0.907653  Biso 1.000000     C
    C   1.0     0.319342     0.982439     0.959662  Biso 1.000000     C
    C   1.0     0.129664     0.961062     0.938257  Biso 1.000000     C
    C   1.0     0.239740     0.623293     0.619356  Biso 1.000000     C
    C   1.0     0.115966     0.562865     0.558484  Biso 1.000000     C
    C   1.0     0.032050     0.593625     0.553140  Biso 1.000000     C
    C   1.0     0.081933     0.470617     0.505944  Biso 1.000000     C
    C   1.0     0.463938     0.900555     0.704625  Biso 1.000000     C
    C   1.0     0.576160     0.968416     0.757733  Biso 1.000000     C
    C   1.0     0.599258     0.050722     0.823698  Biso 1.000000     C
    C   1.0     0.507539     0.062965     0.829716  Biso 1.000000     C
    C   1.0     0.397468     0.992163     0.772520  Biso 1.000000     C
    C   1.0     0.540843     0.577097     0.871232  Biso 1.000000     C
    C   1.0     0.521457     0.537198     0.937602  Biso 1.000000     C
    C   1.0     0.416275     0.513211     0.939317  Biso 1.000000     C
    C   1.0     0.606970     0.523675    -0.000550  Biso 1.000000     C
    C   1.0     0.651678     0.817970     0.854285  Biso 1.000000     C
    C   1.0     0.700130     0.907309     0.932255  Biso 1.000000     C
    C   1.0     0.819085     0.959354     0.982016  Biso 1.000000     C
    C   1.0     0.629404     0.937867     0.960719  Biso 1.000000     C
    C   1.0     0.739718     0.619329     0.623563  Biso 1.000000     C
    C   1.0     0.615953     0.558497     0.562997  Biso 1.000000     C
    C   1.0     0.531925     0.552450     0.593663  Biso 1.000000     C
    C   1.0     0.582042     0.506616     0.470709  Biso 1.000000     C
    C   1.0     0.963757     0.704190     0.900323  Biso 1.000000     C
    C   1.0     0.075942     0.757349     0.968127  Biso 1.000000     C
    C   1.0     0.098996     0.823360     0.050332  Biso 1.000000     C
    C   1.0     0.007264     0.829402     0.062505  Biso 1.000000     C
    C   1.0     0.897244     0.772144     0.991761  Biso 1.000000     C
    C   1.0     0.959012     0.128721     0.422605  Biso 1.000000     C
    C   1.0     0.978509     0.062382     0.462656  Biso 1.000000     C
    C   1.0     0.083630     0.060561     0.486583  Biso 1.000000     C
    C   1.0     0.893137     0.000000     0.476403  Biso 1.000000     C
    C   1.0     0.848153     0.145271     0.181746  Biso 1.000000     C
    C   1.0     0.799671     0.067375     0.092386  Biso 1.000000     C
    C   1.0     0.680716     0.017596     0.040372  Biso 1.000000     C
    C   1.0     0.870394     0.038971     0.061776  Biso 1.000000     C
    C   1.0     0.760316     0.376741     0.380703  Biso 1.000000     C
    C   1.0     0.884094     0.437172     0.441548  Biso 1.000000     C
    C   1.0     0.968010     0.406410     0.446902  Biso 1.000000     C
    C   1.0     0.918127     0.529418     0.494097  Biso 1.000000     C
    C   1.0     0.536129     0.099479     0.295407  Biso 1.000000     C
    C   1.0     0.423907     0.031616     0.242297  Biso 1.000000     C
    C   1.0     0.400815     0.949318     0.176323  Biso 1.000000     C
    C   1.0     0.492533     0.937077     0.170302  Biso 1.000000     C
    C   1.0     0.602604     0.007880     0.227502  Biso 1.000000     C
    N   1.0     0.125032     0.288337     0.089277  Biso 1.000000     N
    N   1.0     0.790425     0.110146     0.878637  Biso 1.000000     N
    N   1.0     0.375235     0.911034     0.712139  Biso 1.000000     N
    N   1.0     0.709914     0.121801     0.890196  Biso 1.000000     N
    N   1.0     0.875037     0.711700     0.910758  Biso 1.000000     N
    N   1.0     0.209648     0.889874     0.121397  Biso 1.000000     N
    N   1.0     0.624832     0.089003     0.287889  Biso 1.000000     N
    N   1.0     0.290157     0.878237     0.109823  Biso 1.000000     N
    O   1.0     0.361439     0.401006     0.129313  Biso 1.000000     O
    O   1.0     0.539425     0.411572     0.180266  Biso 1.000000     O
    O   1.0     0.289452     0.454684     0.998519  Biso 1.000000     O
    O   1.0     0.281107     0.211533     0.159670  Biso 1.000000     O
    O   1.0     0.458658     0.225761     0.194156  Biso 1.000000     O
    O   1.0     0.486261     0.107461     0.085313  Biso 1.000000     O
    O   1.0     0.441362     0.397739     0.318817  Biso 1.000000     O
    O   1.0     0.215641     0.347257     0.288679  Biso 1.000000     O
    O   1.0     0.198837     0.363996     0.418147  Biso 1.000000     O
    O   1.0     0.138782     0.870634     0.599192  Biso 1.000000     O
    O   1.0     0.961089     0.820071     0.589067  Biso 1.000000     O
    O   1.0     0.210557     0.001309     0.545215  Biso 1.000000     O
    O   1.0     0.219146     0.840937     0.788789  Biso 1.000000     O
    O   1.0     0.041625     0.806255     0.774706  Biso 1.000000     O
    O   1.0     0.014052     0.915056     0.892973  Biso 1.000000     O
    O   1.0     0.059079     0.681118     0.603761  Biso 1.000000     O
    O   1.0     0.284578     0.711230     0.653084  Biso 1.000000     O
    O   1.0     0.301159     0.581363     0.635629  Biso 1.000000     O
    O   1.0     0.638638     0.599034     0.870727  Biso 1.000000     O
    O   1.0     0.460657     0.588480     0.819783  Biso 1.000000     O
    O   1.0     0.710613     0.545333     0.001505  Biso 1.000000     O
    O   1.0     0.718947     0.788491     0.840379  Biso 1.000000     O
    O   1.0     0.541394     0.774262     0.805893  Biso 1.000000     O
    O   1.0     0.513794     0.892573     0.914721  Biso 1.000000     O
    O   1.0     0.558697     0.602305     0.681212  Biso 1.000000     O
    O   1.0     0.784423     0.652775     0.711353  Biso 1.000000     O
    O   1.0     0.801222     0.636054     0.581884  Biso 1.000000     O
    O   1.0     0.861287     0.129393     0.400820  Biso 1.000000     O
    O   1.0     0.038989     0.179971     0.410961  Biso 1.000000     O
    O   1.0     0.789515     0.998720     0.454798  Biso 1.000000     O
    O   1.0     0.780915     0.159100     0.211242  Biso 1.000000     O
    O   1.0     0.958435     0.193775     0.225330  Biso 1.000000     O
    O   1.0     0.986007     0.084970     0.107068  Biso 1.000000     O
    O   1.0     0.940984     0.318920     0.396272  Biso 1.000000     O
    O   1.0     0.715484     0.288805     0.346937  Biso 1.000000     O
    O   1.0     0.698900     0.418670     0.364406  Biso 1.000000     O
   Zn   1.0     0.287911     0.338970     0.202985  Biso 1.000000    Zn
   Zn   1.0     0.540208     0.360624     0.275196  Biso 1.000000    Zn
   Zn   1.0     0.212351     0.797130     0.661579  Biso 1.000000    Zn
   Zn   1.0     0.960040     0.725055     0.640101  Biso 1.000000    Zn
   Zn   1.0     0.712147     0.661061     0.797042  Biso 1.000000    Zn
   Zn   1.0     0.459849     0.639408     0.724837  Biso 1.000000    Zn
   Zn   1.0     0.787719     0.202909     0.338453  Biso 1.000000    Zn
   Zn   1.0     0.040023     0.274987     0.359928  Biso 1.000000    Zn
