#======================================================================

# CRYSTAL DATA

#----------------------------------------------------------------------

data_VESTA_phase_1


_pd_phase_name                         MOF
_cell_length_a                         21.15700
_cell_length_b                         16.41300
_cell_length_c                         17.11100
_cell_angle_alpha                      107.91700
_cell_angle_beta                       89.92600
_cell_angle_gamma                      89.83400
_symmetry_space_group_name_H-M         "P 1"
_symmetry_Int_Tables_number            1

loop_
_symmetry_equiv_pos_as_xyz
   "x, y, z"

loop_
   _atom_site_label
   _atom_site_occupancy
   _atom_site_fract_x
   _atom_site_fract_y
   _atom_site_fract_z
   _atom_site_adp_type
   _atom_site_B_iso_or_equiv
   _atom_site_type_symbol
    H   1.0     0.466321     0.551003     0.227298  Biso 1.000000     H
    H   1.0     0.966613     0.551295     0.227386  Biso 1.000000     H
    H   1.0     0.457339     0.443506     0.161079  Biso 1.000000     H
    H   1.0     0.957618     0.443841     0.161038  Biso 1.000000     H
    H   1.0     0.473108     0.463728     0.267627  Biso 1.000000     H
    H   1.0     0.973536     0.463880     0.267512  Biso 1.000000     H
    H   1.0     0.240585     0.381612     0.372324  Biso 1.000000     H
    H   1.0     0.740451     0.382480     0.372785  Biso 1.000000     H
    H   1.0     0.312517     0.323093     0.361703  Biso 1.000000     H
    H   1.0     0.812230     0.323697     0.362665  Biso 1.000000     H
    H   1.0     0.245166     0.289449     0.406648  Biso 1.000000     H
    H   1.0     0.744628     0.290534     0.407512  Biso 1.000000     H
    H   1.0     0.459219     0.840834     0.154527  Biso 1.000000     H
    H   1.0     0.959619     0.840406     0.153745  Biso 1.000000     H
    H   1.0     0.394419     0.770122     0.152054  Biso 1.000000     H
    H   1.0     0.894653     0.770025     0.151548  Biso 1.000000     H
    H   1.0    -0.035223     0.731017     0.092781  Biso 1.000000     H
    H   1.0     0.464659     0.731561     0.093345  Biso 1.000000     H
    H   1.0     0.355645     0.073864     0.955901  Biso 1.000000     H
    H   1.0     0.855532     0.074408     0.956513  Biso 1.000000     H
    H   1.0     0.292775     0.127921     0.922858  Biso 1.000000     H
    H   1.0     0.792708     0.128506     0.923448  Biso 1.000000     H
    H   1.0     0.298089     0.133690     0.028156  Biso 1.000000     H
    H   1.0     0.797895     0.134066     0.028728  Biso 1.000000     H
    H   1.0     0.216603     0.948803     0.272033  Biso 1.000000     H
    H   1.0     0.715798     0.949476     0.272763  Biso 1.000000     H
    H   1.0     0.207548     0.056508     0.337992  Biso 1.000000     H
    H   1.0     0.706982     0.057333     0.338430  Biso 1.000000     H
    H   1.0     0.223701     0.035818     0.231387  Biso 1.000000     H
    H   1.0     0.723129     0.036207     0.231753  Biso 1.000000     H
    H   1.0     0.490510     0.123473     0.124921  Biso 1.000000     H
    H   1.0     0.990815     0.123042     0.125286  Biso 1.000000     H
    H   1.0     0.063862     0.178763     0.139911  Biso 1.000000     H
    H   1.0     0.563645     0.179052     0.139920  Biso 1.000000     H
    H   1.0    -0.001352     0.217478     0.095267  Biso 1.000000     H
    H   1.0     0.498663     0.217944     0.095031  Biso 1.000000     H
    H   1.0     0.209740     0.664894     0.348609  Biso 1.000000     H
    H   1.0     0.709991     0.665236     0.348614  Biso 1.000000     H
    H   1.0     0.144638     0.734909     0.349315  Biso 1.000000     H
    H   1.0     0.644713     0.734948     0.349209  Biso 1.000000     H
    H   1.0     0.214738     0.774967     0.407296  Biso 1.000000     H
    H   1.0     0.714742     0.775362     0.407210  Biso 1.000000     H
    H   1.0     0.105245     0.425369     0.544710  Biso 1.000000     H
    H   1.0     0.604925     0.425945     0.544508  Biso 1.000000     H
    H   1.0     0.042714     0.372058     0.579006  Biso 1.000000     H
    H   1.0     0.542567     0.372764     0.579281  Biso 1.000000     H
    H   1.0     0.047436     0.365712     0.473473  Biso 1.000000     H
    H   1.0     0.546909     0.366229     0.473657  Biso 1.000000     H
    H   1.0     0.033448     0.448630     0.772623  Biso 1.000000     H
    H   1.0     0.533676     0.449335     0.772751  Biso 1.000000     H
    H   1.0     0.042436     0.556087     0.838959  Biso 1.000000     H
    H   1.0     0.542690     0.556833     0.838956  Biso 1.000000     H
    H   1.0     0.026466     0.536036     0.732494  Biso 1.000000     H
    H   1.0     0.527041     0.536588     0.732374  Biso 1.000000     H
    H   1.0     0.259691     0.617661     0.627239  Biso 1.000000     H
    H   1.0     0.759464     0.618479     0.627724  Biso 1.000000     H
    H   1.0     0.187871     0.676356     0.637406  Biso 1.000000     H
    H   1.0     0.687548     0.677033     0.638264  Biso 1.000000     H
    H   1.0     0.255430     0.709652     0.592588  Biso 1.000000     H
    H   1.0     0.754945     0.710604     0.593343  Biso 1.000000     H
    H   1.0     0.040447     0.159657     0.846163  Biso 1.000000     H
    H   1.0     0.540705     0.159237     0.845520  Biso 1.000000     H
    H   1.0     0.105383     0.230089     0.848383  Biso 1.000000     H
    H   1.0     0.605560     0.229893     0.848088  Biso 1.000000     H
    H   1.0     0.535366     0.268462     0.906887  Biso 1.000000     H
    H   1.0     0.000000     0.269035     0.907144  Biso 1.000000     H
    H   1.0     0.144419     0.925589     0.043449  Biso 1.000000     H
    H   1.0     0.644564     0.926461     0.044222  Biso 1.000000     H
    H   1.0     0.207279     0.871565     0.076535  Biso 1.000000     H
    H   1.0     0.707407     0.872321     0.077216  Biso 1.000000     H
    H   1.0     0.202077     0.865958     0.971248  Biso 1.000000     H
    H   1.0     0.702031     0.866506     0.971909  Biso 1.000000     H
    H   1.0     0.284140     0.050824     0.727646  Biso 1.000000     H
    H   1.0     0.783501     0.051280     0.727775  Biso 1.000000     H
    H   1.0     0.293017     0.943011     0.661897  Biso 1.000000     H
    H   1.0     0.792555     0.943538     0.661904  Biso 1.000000     H
    H   1.0     0.276905     0.964012     0.768563  Biso 1.000000     H
    H   1.0     0.776382     0.964340     0.768521  Biso 1.000000     H
    H   1.0     0.009256     0.877037     0.874632  Biso 1.000000     H
    H   1.0     0.509580     0.876612     0.875358  Biso 1.000000     H
    H   1.0     0.436426     0.821065     0.860261  Biso 1.000000     H
    H   1.0     0.936210     0.821320     0.860070  Biso 1.000000     H
    H   1.0     0.501388     0.782044     0.905075  Biso 1.000000     H
    H   1.0     0.000000     0.782637     0.904714  Biso 1.000000     H
    H   1.0     0.290018     0.334689     0.651205  Biso 1.000000     H
    H   1.0     0.790203     0.335337     0.651669  Biso 1.000000     H
    H   1.0     0.355322     0.265078     0.650755  Biso 1.000000     H
    H   1.0     0.855312     0.265290     0.650838  Biso 1.000000     H
    H   1.0     0.285321     0.224522     0.592732  Biso 1.000000     H
    H   1.0     0.785183     0.225291     0.592901  Biso 1.000000     H
    H   1.0     0.395089     0.574373     0.455760  Biso 1.000000     H
    H   1.0     0.894807     0.574573     0.455197  Biso 1.000000     H
    H   1.0     0.457461     0.627604     0.421072  Biso 1.000000     H
    H   1.0     0.957345     0.627841     0.420870  Biso 1.000000     H
    H   1.0     0.453073     0.634090     0.526673  Biso 1.000000     H
    H   1.0     0.952626     0.634225     0.526415  Biso 1.000000     H
    C   1.0     0.379008     0.491424     0.239741  Biso 1.000000     C
    C   1.0     0.879362     0.491603     0.239847  Biso 1.000000     C
    C   1.0     0.447918     0.487501     0.222779  Biso 1.000000     C
    C   1.0     0.948260     0.487750     0.222799  Biso 1.000000     C
    C   1.0     0.240240     0.262876     0.276776  Biso 1.000000     C
    C   1.0     0.740098     0.263516     0.277547  Biso 1.000000     C
    C   1.0     0.260873     0.317051     0.359179  Biso 1.000000     C
    C   1.0     0.760574     0.317864     0.359959  Biso 1.000000     C
    C   1.0    -0.025244     0.753102     0.220597  Biso 1.000000     C
    C   1.0     0.474582     0.753268     0.221083  Biso 1.000000     C
    C   1.0     0.445987     0.775130     0.151164  Biso 1.000000     C
    C   1.0     0.946235     0.774799     0.150562  Biso 1.000000     C
    C   1.0     0.364952     0.209498     0.988236  Biso 1.000000     C
    C   1.0     0.864786     0.210060     0.989125  Biso 1.000000     C
    C   1.0     0.325685     0.131546     0.973374  Biso 1.000000     C
    C   1.0     0.825542     0.132061     0.974024  Biso 1.000000     C
    C   1.0     0.129450     0.000000     0.259387  Biso 1.000000     C
    C   1.0     0.628815     0.000000     0.259958  Biso 1.000000     C
    C   1.0     0.198296     0.012469     0.276355  Biso 1.000000     C
    C   1.0     0.697657     0.013171     0.276876  Biso 1.000000     C
    C   1.0     0.490485     0.239548     0.224024  Biso 1.000000     C
    C   1.0     0.990870     0.239189     0.224315  Biso 1.000000     C
    C   1.0     0.012348     0.186904     0.141409  Biso 1.000000     C
    C   1.0     0.512146     0.187288     0.141194  Biso 1.000000     C
    C   1.0     0.224689     0.749490     0.278920  Biso 1.000000     C
    C   1.0     0.724676     0.749821     0.278832  Biso 1.000000     C
    C   1.0     0.196239     0.730125     0.350252  Biso 1.000000     C
    C   1.0     0.696328     0.730386     0.350186  Biso 1.000000     C
    C   1.0     0.114685     0.289647     0.512798  Biso 1.000000     C
    C   1.0     0.614355     0.290237     0.512767  Biso 1.000000     C
    C   1.0     0.075340     0.367912     0.527966  Biso 1.000000     C
    C   1.0     0.575001     0.368505     0.528026  Biso 1.000000     C
    C   1.0     0.120667     0.508350     0.760093  Biso 1.000000     C
    C   1.0     0.621069     0.508793     0.760421  Biso 1.000000     C
    C   1.0     0.051778     0.512182     0.777193  Biso 1.000000     C
    C   1.0     0.552144     0.512806     0.777280  Biso 1.000000     C
    C   1.0     0.259976     0.736574     0.722549  Biso 1.000000     C
    C   1.0     0.759810     0.737251     0.723224  Biso 1.000000     C
    C   1.0     0.239523     0.682257     0.640113  Biso 1.000000     C
    C   1.0     0.739194     0.683046     0.640824  Biso 1.000000     C
    C   1.0     0.525394     0.247018     0.779194  Biso 1.000000     C
    C   1.0     0.000000     0.246961     0.779326  Biso 1.000000     C
    C   1.0     0.053803     0.225279     0.849361  Biso 1.000000     C
    C   1.0     0.553989     0.224957     0.849005  Biso 1.000000     C
    C   1.0     0.135234     0.789930     0.010881  Biso 1.000000     C
    C   1.0     0.635140     0.790839     0.011963  Biso 1.000000     C
    C   1.0     0.174437     0.867962     0.025956  Biso 1.000000     C
    C   1.0     0.674467     0.868727     0.026737  Biso 1.000000     C
    C   1.0     0.371182    -0.009765     0.740362  Biso 1.000000     C
    C   1.0     0.870640    -0.009131     0.740513  Biso 1.000000     C
    C   1.0     0.302335     0.987139     0.723469  Biso 1.000000     C
    C   1.0     0.801800     0.987627     0.723520  Biso 1.000000     C
    C   1.0     0.009183     0.760848     0.775653  Biso 1.000000     C
    C   1.0     0.509583     0.760643     0.776126  Biso 1.000000     C
    C   1.0     0.487922     0.812806     0.858986  Biso 1.000000     C
    C   1.0     0.987724     0.813177     0.858553  Biso 1.000000     C
    C   1.0     0.275346     0.250234     0.721127  Biso 1.000000     C
    C   1.0     0.775299     0.250638     0.721265  Biso 1.000000     C
    C   1.0     0.303705     0.269576     0.649730  Biso 1.000000     C
    C   1.0     0.803710     0.270087     0.649953  Biso 1.000000     C
    C   1.0     0.385633     0.710081     0.487549  Biso 1.000000     C
    C   1.0     0.885392     0.710297     0.487077  Biso 1.000000     C
    C   1.0     0.424999     0.631825     0.472293  Biso 1.000000     C
    C   1.0     0.924723     0.632019     0.471920  Biso 1.000000     C
    N   1.0     0.344366     0.562734     0.272031  Biso 1.000000     N
    N   1.0     0.844604     0.562922     0.271505  Biso 1.000000     N
    N   1.0     0.283579     0.537315     0.279309  Biso 1.000000     N
    N   1.0     0.783860     0.537531     0.279048  Biso 1.000000     N
    N   1.0     0.281381     0.453867     0.252203  Biso 1.000000     N
    N   1.0     0.781780     0.454063     0.252704  Biso 1.000000     N
    N   1.0     0.340584     0.423358     0.226779  Biso 1.000000     N
    N   1.0     0.841022     0.423530     0.227535  Biso 1.000000     N
    N   1.0     0.274883     0.244557     0.207365  Biso 1.000000     N
    N   1.0     0.775011     0.244869     0.208356  Biso 1.000000     N
    N   1.0     0.238569     0.194072     0.145327  Biso 1.000000     N
    N   1.0     0.738864     0.194350     0.146154  Biso 1.000000     N
    N   1.0     0.184133     0.181716     0.175614  Biso 1.000000     N
    N   1.0     0.684236     0.182286     0.176125  Biso 1.000000     N
    N   1.0     0.183770     0.224280     0.258139  Biso 1.000000     N
    N   1.0     0.683601     0.225080     0.258601  Biso 1.000000     N
    N   1.0     0.445342     0.720635     0.274728  Biso 1.000000     N
    N   1.0     0.945447     0.720959     0.274519  Biso 1.000000     N
    N   1.0    -0.009576     0.710117     0.328107  Biso 1.000000     N
    N   1.0     0.490386     0.709650     0.328189  Biso 1.000000     N
    N   1.0     0.044748     0.734686     0.307707  Biso 1.000000     N
    N   1.0     0.544647     0.734612     0.308010  Biso 1.000000     N
    N   1.0     0.036456     0.761852     0.240703  Biso 1.000000     N
    N   1.0     0.536276     0.762204     0.241274  Biso 1.000000     N
    N   1.0     0.378211     0.267261     0.061271  Biso 1.000000     N
    N   1.0     0.878179     0.267537     0.062287  Biso 1.000000     N
    N   1.0     0.417122     0.327470     0.046149  Biso 1.000000     N
    N   1.0     0.917057     0.327851     0.047283  Biso 1.000000     N
    N   1.0     0.426813     0.307381     0.967245  Biso 1.000000     N
    N   1.0     0.926606     0.308103     0.968373  Biso 1.000000     N
    N   1.0     0.394698     0.233822     0.929491  Biso 1.000000     N
    N   1.0     0.894412     0.234658     0.930442  Biso 1.000000     N
    N   1.0     0.094783     0.938408     0.226617  Biso 1.000000     N
    N   1.0     0.594060     0.939333     0.227642  Biso 1.000000     N
    N   1.0     0.034103     0.964644     0.219460  Biso 1.000000     N
    N   1.0     0.533406     0.965531     0.220308  Biso 1.000000     N
    N   1.0     0.031958     0.048102     0.247100  Biso 1.000000     N
    N   1.0     0.531363     0.049011     0.247437  Biso 1.000000     N
    N   1.0     0.091097     0.077765     0.272755  Biso 1.000000     N
    N   1.0     0.590546     0.078681     0.272904  Biso 1.000000     N
    N   1.0     0.025171     0.256828     0.293758  Biso 1.000000     N
    N   1.0     0.524667     0.257344     0.293594  Biso 1.000000     N
    N   1.0     0.487450     0.306263     0.355909  Biso 1.000000     N
    N   1.0     0.988171     0.305858     0.356231  Biso 1.000000     N
    N   1.0     0.432918     0.318203     0.325615  Biso 1.000000     N
    N   1.0     0.933601     0.318026     0.326183  Biso 1.000000     N
    N   1.0     0.433404     0.276925     0.242837  Biso 1.000000     N
    N   1.0     0.933876     0.276778     0.243401  Biso 1.000000     N
    N   1.0     0.195292     0.780188     0.223997  Biso 1.000000     N
    N   1.0     0.695185     0.780942     0.224275  Biso 1.000000     N
    N   1.0     0.240230     0.789157     0.169449  Biso 1.000000     N
    N   1.0     0.739964     0.789847     0.169505  Biso 1.000000     N
    N   1.0     0.294580     0.764841     0.190212  Biso 1.000000     N
    N   1.0     0.794327     0.765102     0.189791  Biso 1.000000     N
    N   1.0     0.286387     0.739761     0.258452  Biso 1.000000     N
    N   1.0     0.786285     0.739796     0.257930  Biso 1.000000     N
    N   1.0     0.128144     0.232160     0.439475  Biso 1.000000     N
    N   1.0     0.627721     0.232785     0.439406  Biso 1.000000     N
    N   1.0     0.166934     0.171349     0.454161  Biso 1.000000     N
    N   1.0     0.666564     0.171957     0.453939  Biso 1.000000     N
    N   1.0     0.176379     0.190853     0.533051  Biso 1.000000     N
    N   1.0     0.676139     0.191405     0.532795  Biso 1.000000     N
    N   1.0     0.144225     0.264632     0.571278  Biso 1.000000     N
    N   1.0     0.644009     0.265166     0.571140  Biso 1.000000     N
    N   1.0     0.155419     0.437039     0.728358  Biso 1.000000     N
    N   1.0     0.655704     0.437455     0.728241  Biso 1.000000     N
    N   1.0     0.216157     0.462442     0.720797  Biso 1.000000     N
    N   1.0     0.716509     0.462836     0.721002  Biso 1.000000     N
    N   1.0     0.218239     0.545909     0.747204  Biso 1.000000     N
    N   1.0     0.718726     0.546285     0.748032  Biso 1.000000     N
    N   1.0     0.159005     0.576430     0.772432  Biso 1.000000     N
    N   1.0     0.659516     0.576831     0.773365  Biso 1.000000     N
    N   1.0     0.225047     0.755119     0.791723  Biso 1.000000     N
    N   1.0     0.725179     0.755581     0.792649  Biso 1.000000     N
    N   1.0     0.261164     0.805630     0.853967  Biso 1.000000     N
    N   1.0     0.761497     0.806112     0.854657  Biso 1.000000     N
    N   1.0     0.315785     0.817787     0.824037  Biso 1.000000     N
    N   1.0     0.815921     0.818475     0.824344  Biso 1.000000     N
    N   1.0     0.316451     0.775067     0.741546  Biso 1.000000     N
    N   1.0     0.816274     0.775877     0.741827  Biso 1.000000     N
    N   1.0     0.054576     0.279014     0.725336  Biso 1.000000     N
    N   1.0     0.554649     0.279710     0.725611  Biso 1.000000     N
    N   1.0     0.509605     0.290900     0.672246  Biso 1.000000     N
    N   1.0     0.000000     0.289844     0.671759  Biso 1.000000     N
    N   1.0     0.455324     0.265999     0.692426  Biso 1.000000     N
    N   1.0     0.955256     0.265361     0.692233  Biso 1.000000     N
    N   1.0     0.463689     0.238241     0.759061  Biso 1.000000     N
    N   1.0     0.963559     0.238262     0.759275  Biso 1.000000     N
    N   1.0     0.121861     0.732410     0.937735  Biso 1.000000     N
    N   1.0     0.621888     0.733016     0.938948  Biso 1.000000     N
    N   1.0     0.083021     0.672077     0.952778  Biso 1.000000     N
    N   1.0     0.582926     0.672885     0.954121  Biso 1.000000     N
    N   1.0     0.073478     0.691858     0.031693  Biso 1.000000     N
    N   1.0     0.573200     0.693078     0.033028  Biso 1.000000     N
    N   1.0     0.105636     0.765345     0.069589  Biso 1.000000     N
    N   1.0     0.605339     0.766631     0.070749  Biso 1.000000     N
    N   1.0     0.405928     0.061053     0.772666  Biso 1.000000     N
    N   1.0     0.905297     0.061694     0.773332  Biso 1.000000     N
    N   1.0     0.466591     0.034855     0.779963  Biso 1.000000     N
    N   1.0     0.965973     0.035453     0.780505  Biso 1.000000     N
    N   1.0     0.468647     0.951376     0.752832  Biso 1.000000     N
    N   1.0     0.968125     0.951996     0.752827  Biso 1.000000     N
    N   1.0     0.409463     0.921694     0.727396  Biso 1.000000     N
    N   1.0     0.908993     0.922331     0.727129  Biso 1.000000     N
    N   1.0     0.475411     0.742960     0.706554  Biso 1.000000     N
    N   1.0     0.974882     0.743222     0.706210  Biso 1.000000     N
    N   1.0     0.011865     0.694135     0.643747  Biso 1.000000     N
    N   1.0     0.512635     0.694097     0.644212  Biso 1.000000     N
    N   1.0     0.066424     0.681927     0.673801  Biso 1.000000     N
    N   1.0     0.567156     0.682083     0.674495  Biso 1.000000     N
    N   1.0     0.066159     0.723200     0.756580  Biso 1.000000     N
    N   1.0     0.566658     0.723256     0.757293  Biso 1.000000     N
    N   1.0     0.304831     0.219291     0.775814  Biso 1.000000     N
    N   1.0     0.804727     0.219874     0.776117  Biso 1.000000     N
    N   1.0     0.260027     0.210412     0.830565  Biso 1.000000     N
    N   1.0     0.759817     0.210817     0.830661  Biso 1.000000     N
    N   1.0     0.205655     0.235004     0.810146  Biso 1.000000     N
    N   1.0     0.705451     0.235147     0.809967  Biso 1.000000     N
    N   1.0     0.213718     0.260180     0.741938  Biso 1.000000     N
    N   1.0     0.713610     0.260324     0.741780  Biso 1.000000     N
    N   1.0     0.372295     0.767580     0.560885  Biso 1.000000     N
    N   1.0     0.871950     0.767808     0.560399  Biso 1.000000     N
    N   1.0     0.333430     0.828382     0.546341  Biso 1.000000     N
    N   1.0     0.833166     0.828619     0.545698  Biso 1.000000     N
    N   1.0     0.323809     0.808869     0.467492  Biso 1.000000     N
    N   1.0     0.823711     0.809095     0.466809  Biso 1.000000     N
    N   1.0     0.355935     0.735099     0.429179  Biso 1.000000     N
    N   1.0     0.855849     0.735300     0.428586  Biso 1.000000     N
   Zn   1.0     0.355580     0.295406     0.180886  Biso 1.000000    Zn
   Zn   1.0     0.855792     0.295587     0.182290  Biso 1.000000    Zn
   Zn   1.0     0.358361     0.690626     0.305027  Biso 1.000000    Zn
   Zn   1.0     0.858403     0.690726     0.304237  Biso 1.000000    Zn
   Zn   1.0     0.105834     0.205221     0.319794  Biso 1.000000    Zn
   Zn   1.0     0.605525     0.206060     0.319778  Biso 1.000000    Zn
   Zn   1.0     0.108345     0.810327     0.193571  Biso 1.000000    Zn
   Zn   1.0     0.608146     0.811699     0.194825  Biso 1.000000    Zn
   Zn   1.0     0.144237     0.704375     0.817719  Biso 1.000000    Zn
   Zn   1.0     0.644475     0.704730     0.819262  Biso 1.000000    Zn
   Zn   1.0     0.141619     0.309229     0.695588  Biso 1.000000    Zn
   Zn   1.0     0.641649     0.309573     0.695401  Biso 1.000000    Zn
   Zn   1.0     0.394525     0.794313     0.680451  Biso 1.000000    Zn
   Zn   1.0     0.894218     0.794844     0.680145  Biso 1.000000    Zn
   Zn   1.0     0.391855     0.188769     0.805555  Biso 1.000000    Zn
   Zn   1.0     0.891700     0.189808     0.806466  Biso 1.000000    Zn
