#======================================================================

# CRYSTAL DATA

#----------------------------------------------------------------------

data_VESTA_phase_1


_pd_phase_name                         MOF
_cell_length_a                         20.12600
_cell_length_b                         20.13500
_cell_length_c                         18.14300
_cell_angle_alpha                      80.10600
_cell_angle_beta                       70.39500
_cell_angle_gamma                      94.92200
_symmetry_space_group_name_H-M         "P 1"
_symmetry_Int_Tables_number            1

loop_
_symmetry_equiv_pos_as_xyz
   "x, y, z"

loop_
   _atom_site_label
   _atom_site_occupancy
   _atom_site_fract_x
   _atom_site_fract_y
   _atom_site_fract_z
   _atom_site_adp_type
   _atom_site_B_iso_or_equiv
   _atom_site_type_symbol
    H   1.0     0.296662     0.315594     0.276994  Biso 1.000000     H
    H   1.0     0.296671     0.815604     0.276993  Biso 1.000000     H
    H   1.0     0.796670     0.315619     0.277001  Biso 1.000000     H
    H   1.0     0.796677     0.815625     0.277000  Biso 1.000000     H
    H   1.0     0.478524     0.386784     0.058186  Biso 1.000000     H
    H   1.0     0.478532     0.886792     0.058185  Biso 1.000000     H
    H   1.0     0.978528     0.386783     0.058184  Biso 1.000000     H
    H   1.0     0.978536     0.886790     0.058185  Biso 1.000000     H
    H   1.0     0.506921     0.316368     0.282694  Biso 1.000000     H
    H   1.0     0.506930     0.816379     0.282692  Biso 1.000000     H
    H   1.0     0.000000     0.316384     0.282692  Biso 1.000000     H
    H   1.0     0.000000     0.816390     0.282693  Biso 1.000000     H
    H   1.0     0.202448     0.434406     0.223219  Biso 1.000000     H
    H   1.0     0.202456     0.934419     0.223217  Biso 1.000000     H
    H   1.0     0.702461     0.434419     0.223227  Biso 1.000000     H
    H   1.0     0.702469     0.934432     0.223226  Biso 1.000000     H
    H   1.0     0.165717     0.506434     0.442035  Biso 1.000000     H
    H   1.0     0.165721     0.000000     0.442035  Biso 1.000000     H
    H   1.0     0.665721     0.506444     0.442046  Biso 1.000000     H
    H   1.0     0.665730     0.000000     0.442045  Biso 1.000000     H
    H   1.0     0.207555     0.147452     0.217804  Biso 1.000000     H
    H   1.0     0.207570     0.647465     0.217800  Biso 1.000000     H
    H   1.0     0.707562     0.147464     0.217815  Biso 1.000000     H
    H   1.0     0.707572     0.647477     0.217813  Biso 1.000000     H
    H   1.0     0.203341     0.184426     0.722988  Biso 1.000000     H
    H   1.0     0.203350     0.684437     0.722989  Biso 1.000000     H
    H   1.0     0.703348     0.184451     0.722996  Biso 1.000000     H
    H   1.0     0.703356     0.684458     0.722996  Biso 1.000000     H
    H   1.0     0.021478     0.113227     0.941795  Biso 1.000000     H
    H   1.0     0.021487     0.613234     0.941793  Biso 1.000000     H
    H   1.0     0.521482     0.113223     0.941793  Biso 1.000000     H
    H   1.0     0.521490     0.613231     0.941793  Biso 1.000000     H
    H   1.0    -0.006920     0.183658     0.717291  Biso 1.000000     H
    H   1.0    -0.006909     0.683668     0.717289  Biso 1.000000     H
    H   1.0     0.493091     0.183672     0.717289  Biso 1.000000     H
    H   1.0     0.493098     0.683679     0.717290  Biso 1.000000     H
    H   1.0     0.297545     0.065600     0.776766  Biso 1.000000     H
    H   1.0     0.297554     0.565612     0.776765  Biso 1.000000     H
    H   1.0     0.797558     0.065613     0.776775  Biso 1.000000     H
    H   1.0     0.797564     0.565626     0.776774  Biso 1.000000     H
    H   1.0     0.334289    -0.006418     0.557943  Biso 1.000000     H
    H   1.0     0.334292     0.493592     0.557944  Biso 1.000000     H
    H   1.0     0.834295    -0.006407     0.557954  Biso 1.000000     H
    H   1.0     0.834302     0.493604     0.557953  Biso 1.000000     H
    H   1.0     0.292442     0.352556     0.782174  Biso 1.000000     H
    H   1.0     0.292456     0.852569     0.782171  Biso 1.000000     H
    H   1.0     0.792449     0.352569     0.782185  Biso 1.000000     H
    H   1.0     0.792460     0.852581     0.782183  Biso 1.000000     H
    C   1.0     0.354023     0.325284     0.245028  Biso 1.000000     C
    C   1.0     0.354031     0.825288     0.245027  Biso 1.000000     C
    C   1.0     0.854030     0.325303     0.245033  Biso 1.000000     C
    C   1.0     0.854038     0.825305     0.245032  Biso 1.000000     C
    C   1.0     0.382113     0.351347     0.162188  Biso 1.000000     C
    C   1.0     0.382121     0.851361     0.162188  Biso 1.000000     C
    C   1.0     0.882119     0.351359     0.162191  Biso 1.000000     C
    C   1.0     0.882126     0.851368     0.162192  Biso 1.000000     C
    C   1.0     0.501838     0.351449     0.165037  Biso 1.000000     C
    C   1.0     0.501847     0.851463     0.165037  Biso 1.000000     C
    C   1.0     0.000000     0.351457     0.165036  Biso 1.000000     C
    C   1.0     0.000000     0.851467     0.165037  Biso 1.000000     C
    C   1.0     0.333371     0.364733     0.116461  Biso 1.000000     C
    C   1.0     0.333380     0.864738     0.116459  Biso 1.000000     C
    C   1.0     0.833376     0.364739     0.116464  Biso 1.000000     C
    C   1.0     0.833384     0.864744     0.116463  Biso 1.000000     C
    C   1.0     0.456276     0.365415     0.122368  Biso 1.000000     C
    C   1.0     0.456284     0.865418     0.122366  Biso 1.000000     C
    C   1.0     0.956281     0.365420     0.122368  Biso 1.000000     C
    C   1.0     0.956288     0.865422     0.122367  Biso 1.000000     C
    C   1.0     0.081014     0.364135     0.122434  Biso 1.000000     C
    C   1.0     0.081021     0.864139     0.122434  Biso 1.000000     C
    C   1.0     0.581015     0.364134     0.122441  Biso 1.000000     C
    C   1.0     0.581024     0.864139     0.122437  Biso 1.000000     C
    C   1.0     0.369917     0.286447     0.377290  Biso 1.000000     C
    C   1.0     0.369928     0.786452     0.377288  Biso 1.000000     C
    C   1.0     0.869928     0.286470     0.377293  Biso 1.000000     C
    C   1.0     0.869935     0.786473     0.377293  Biso 1.000000     C
    C   1.0     0.472778     0.325801     0.247797  Biso 1.000000     C
    C   1.0     0.472787     0.825806     0.247794  Biso 1.000000     C
    C   1.0     0.972787     0.325816     0.247796  Biso 1.000000     C
    C   1.0     0.972794     0.825817     0.247796  Biso 1.000000     C
    C   1.0     0.398953     0.312981     0.288463  Biso 1.000000     C
    C   1.0     0.398963     0.812996     0.288463  Biso 1.000000     C
    C   1.0     0.898963     0.313002     0.288466  Biso 1.000000     C
    C   1.0     0.898970     0.813011     0.288467  Biso 1.000000     C
    C   1.0     0.196642     0.475738     0.255203  Biso 1.000000     C
    C   1.0     0.196643     0.975750     0.255203  Biso 1.000000     C
    C   1.0     0.696667     0.475752     0.255210  Biso 1.000000     C
    C   1.0     0.696666     0.975764     0.255211  Biso 1.000000     C
    C   1.0     0.181606     0.462265     0.337984  Biso 1.000000     C
    C   1.0     0.181613     0.962277     0.337983  Biso 1.000000     C
    C   1.0     0.681600     0.462275     0.337997  Biso 1.000000     C
    C   1.0     0.681613     0.962287     0.337995  Biso 1.000000     C
    C   1.0     0.183876     0.083380     0.335342  Biso 1.000000     C
    C   1.0     0.183884     0.583393     0.335341  Biso 1.000000     C
    C   1.0     0.683875     0.083390     0.335355  Biso 1.000000     C
    C   1.0     0.683872     0.583402     0.335355  Biso 1.000000     C
    C   1.0     0.172212     0.390613     0.383504  Biso 1.000000     C
    C   1.0     0.172218     0.890624     0.383504  Biso 1.000000     C
    C   1.0     0.672231     0.390624     0.383507  Biso 1.000000     C
    C   1.0     0.672234     0.890635     0.383508  Biso 1.000000     C
    C   1.0     0.176208     0.516417     0.377898  Biso 1.000000     C
    C   1.0     0.176208     0.000000     0.377899  Biso 1.000000     C
    C   1.0     0.676228     0.516430     0.377906  Biso 1.000000     C
    C   1.0     0.676228     0.000000     0.377907  Biso 1.000000     C
    C   1.0     0.175954     0.141258     0.377892  Biso 1.000000     C
    C   1.0     0.175969     0.641270     0.377891  Biso 1.000000     C
    C   1.0     0.675972     0.141270     0.377903  Biso 1.000000     C
    C   1.0     0.675984     0.641283     0.377901  Biso 1.000000     C
    C   1.0     0.224089     0.058053     0.123075  Biso 1.000000     C
    C   1.0     0.224095     0.558065     0.123074  Biso 1.000000     C
    C   1.0     0.724104     0.058064     0.123085  Biso 1.000000     C
    C   1.0     0.724114     0.558076     0.123083  Biso 1.000000     C
    C   1.0     0.199300     0.095820     0.252640  Biso 1.000000     C
    C   1.0     0.199313     0.595833     0.252637  Biso 1.000000     C
    C   1.0     0.699317     0.095833     0.252649  Biso 1.000000     C
    C   1.0     0.699331     0.595846     0.252647  Biso 1.000000     C
    C   1.0     0.206305     0.042437     0.211881  Biso 1.000000     C
    C   1.0     0.206310     0.542449     0.211881  Biso 1.000000     C
    C   1.0     0.706304     0.042448     0.211894  Biso 1.000000     C
    C   1.0     0.706302     0.542459     0.211895  Biso 1.000000     C
    C   1.0     0.145980     0.174739     0.754954  Biso 1.000000     C
    C   1.0     0.145989     0.674759     0.754956  Biso 1.000000     C
    C   1.0     0.645987     0.174759     0.754960  Biso 1.000000     C
    C   1.0     0.645995     0.674767     0.754960  Biso 1.000000     C
    C   1.0     0.117889     0.148666     0.837794  Biso 1.000000     C
    C   1.0     0.117899     0.648666     0.837791  Biso 1.000000     C
    C   1.0     0.617895     0.148674     0.837796  Biso 1.000000     C
    C   1.0     0.617903     0.648682     0.837796  Biso 1.000000     C
    C   1.0    -0.001835     0.148568     0.834945  Biso 1.000000     C
    C   1.0    -0.001826     0.648566     0.834941  Biso 1.000000     C
    C   1.0     0.498171     0.148571     0.834943  Biso 1.000000     C
    C   1.0     0.498179     0.648579     0.834944  Biso 1.000000     C
    C   1.0     0.166630     0.135280     0.883524  Biso 1.000000     C
    C   1.0     0.166638     0.635294     0.883526  Biso 1.000000     C
    C   1.0     0.666634     0.135287     0.883528  Biso 1.000000     C
    C   1.0     0.666642     0.635295     0.883528  Biso 1.000000     C
    C   1.0     0.043727     0.134605     0.877614  Biso 1.000000     C
    C   1.0     0.043736     0.634622     0.877615  Biso 1.000000     C
    C   1.0     0.543732     0.134608     0.877614  Biso 1.000000     C
    C   1.0     0.543740     0.634615     0.877615  Biso 1.000000     C
    C   1.0     0.418994     0.135887     0.877539  Biso 1.000000     C
    C   1.0     0.419002     0.635894     0.877539  Biso 1.000000     C
    C   1.0     0.918995     0.135886     0.877545  Biso 1.000000     C
    C   1.0     0.919005     0.635901     0.877546  Biso 1.000000     C
    C   1.0     0.130082     0.213579     0.622692  Biso 1.000000     C
    C   1.0     0.130093     0.713598     0.622693  Biso 1.000000     C
    C   1.0     0.630092     0.213604     0.622697  Biso 1.000000     C
    C   1.0     0.630099     0.713612     0.622697  Biso 1.000000     C
    C   1.0     0.027224     0.174226     0.752187  Biso 1.000000     C
    C   1.0     0.027234     0.674245     0.752188  Biso 1.000000     C
    C   1.0     0.527232     0.174240     0.752188  Biso 1.000000     C
    C   1.0     0.527240     0.674247     0.752188  Biso 1.000000     C
    C   1.0     0.101049     0.187040     0.711519  Biso 1.000000     C
    C   1.0     0.101058     0.687041     0.711516  Biso 1.000000     C
    C   1.0     0.601058     0.187058     0.711522  Biso 1.000000     C
    C   1.0     0.601065     0.687066     0.711522  Biso 1.000000     C
    C   1.0     0.303345     0.024268     0.744781  Biso 1.000000     C
    C   1.0     0.303364     0.524282     0.744778  Biso 1.000000     C
    C   1.0     0.803362     0.024282     0.744789  Biso 1.000000     C
    C   1.0     0.803362     0.524293     0.744790  Biso 1.000000     C
    C   1.0     0.318406     0.037747     0.661996  Biso 1.000000     C
    C   1.0     0.318396     0.537757     0.661998  Biso 1.000000     C
    C   1.0     0.818407     0.037758     0.662006  Biso 1.000000     C
    C   1.0     0.818419     0.537770     0.662005  Biso 1.000000     C
    C   1.0     0.316126     0.416630     0.664636  Biso 1.000000     C
    C   1.0     0.316150     0.916645     0.664631  Biso 1.000000     C
    C   1.0     0.816149     0.416644     0.664643  Biso 1.000000     C
    C   1.0     0.816148     0.916655     0.664643  Biso 1.000000     C
    C   1.0     0.327770     0.109399     0.616487  Biso 1.000000     C
    C   1.0     0.327789     0.609410     0.616482  Biso 1.000000     C
    C   1.0     0.827784     0.109410     0.616492  Biso 1.000000     C
    C   1.0     0.827786     0.609421     0.616493  Biso 1.000000     C
    C   1.0     0.323785    -0.016406     0.622083  Biso 1.000000     C
    C   1.0     0.323802     0.483607     0.622081  Biso 1.000000     C
    C   1.0     0.823799    -0.016394     0.622091  Biso 1.000000     C
    C   1.0     0.823798     0.483617     0.622093  Biso 1.000000     C
    C   1.0     0.324049     0.358755     0.622082  Biso 1.000000     C
    C   1.0     0.324047     0.858764     0.622085  Biso 1.000000     C
    C   1.0     0.824047     0.358763     0.622098  Biso 1.000000     C
    C   1.0     0.824060     0.858776     0.622096  Biso 1.000000     C
    C   1.0     0.275917     0.441953     0.876902  Biso 1.000000     C
    C   1.0     0.275908     0.941963     0.876903  Biso 1.000000     C
    C   1.0     0.775911     0.441962     0.876915  Biso 1.000000     C
    C   1.0     0.775922     0.941974     0.876913  Biso 1.000000     C
    C   1.0     0.300699     0.404188     0.747338  Biso 1.000000     C
    C   1.0     0.300695     0.904199     0.747338  Biso 1.000000     C
    C   1.0     0.800694     0.404199     0.747351  Biso 1.000000     C
    C   1.0     0.800709     0.904212     0.747348  Biso 1.000000     C
    C   1.0     0.293697     0.457571     0.788097  Biso 1.000000     C
    C   1.0     0.293718     0.957584     0.788093  Biso 1.000000     C
    C   1.0     0.793719     0.457585     0.788104  Biso 1.000000     C
    C   1.0     0.793718     0.957596     0.788105  Biso 1.000000     C
    O   1.0     0.265688     0.338910     0.152506  Biso 1.000000     O
    O   1.0     0.265696     0.838920     0.152506  Biso 1.000000     O
    O   1.0     0.765693     0.338916     0.152511  Biso 1.000000     O
    O   1.0     0.765700     0.838925     0.152512  Biso 1.000000     O
    O   1.0     0.355594     0.399931     0.046643  Biso 1.000000     O
    O   1.0     0.355600     0.899942     0.046643  Biso 1.000000     O
    O   1.0     0.855598     0.399934     0.046645  Biso 1.000000     O
    O   1.0     0.855604     0.899944     0.046646  Biso 1.000000     O
    O   1.0     0.120301     0.339495     0.161845  Biso 1.000000     O
    O   1.0     0.120309     0.839503     0.161846  Biso 1.000000     O
    O   1.0     0.620301     0.339497     0.161856  Biso 1.000000     O
    O   1.0     0.620310     0.839506     0.161853  Biso 1.000000     O
    O   1.0     0.108812     0.397422     0.051669  Biso 1.000000     O
    O   1.0     0.108819     0.897429     0.051670  Biso 1.000000     O
    O   1.0     0.608815     0.397424     0.051678  Biso 1.000000     O
    O   1.0     0.608823     0.897433     0.051676  Biso 1.000000     O
    O   1.0     0.412747     0.277598     0.414287  Biso 1.000000     O
    O   1.0     0.412758     0.777607     0.414284  Biso 1.000000     O
    O   1.0     0.912758     0.277611     0.414288  Biso 1.000000     O
    O   1.0     0.912765     0.777616     0.414288  Biso 1.000000     O
    O   1.0     0.301471     0.273351     0.414126  Biso 1.000000     O
    O   1.0     0.301481     0.773360     0.414126  Biso 1.000000     O
    O   1.0     0.801482     0.273387     0.414131  Biso 1.000000     O
    O   1.0     0.801489     0.773394     0.414132  Biso 1.000000     O
    O   1.0     0.165139     0.341094     0.347059  Biso 1.000000     O
    O   1.0     0.165149     0.841106     0.347056  Biso 1.000000     O
    O   1.0     0.665158     0.341108     0.347059  Biso 1.000000     O
    O   1.0     0.665164     0.841119     0.347057  Biso 1.000000     O
    O   1.0     0.172060     0.377785     0.453496  Biso 1.000000     O
    O   1.0     0.172068     0.877797     0.453495  Biso 1.000000     O
    O   1.0     0.672056     0.377792     0.453508  Biso 1.000000     O
    O   1.0     0.672066     0.877803     0.453506  Biso 1.000000     O
    O   1.0     0.171934     0.200523     0.338230  Biso 1.000000     O
    O   1.0     0.171944     0.700534     0.338231  Biso 1.000000     O
    O   1.0     0.671937     0.200533     0.338248  Biso 1.000000     O
    O   1.0     0.671942     0.700544     0.338250  Biso 1.000000     O
    O   1.0     0.173553     0.133510     0.448756  Biso 1.000000     O
    O   1.0     0.173568     0.633522     0.448754  Biso 1.000000     O
    O   1.0     0.673569     0.133519     0.448767  Biso 1.000000     O
    O   1.0     0.673577     0.633530     0.448767  Biso 1.000000     O
    O   1.0     0.233294     0.119402     0.086344  Biso 1.000000     O
    O   1.0     0.233306     0.619415     0.086342  Biso 1.000000     O
    O   1.0     0.733300     0.119412     0.086354  Biso 1.000000     O
    O   1.0     0.733310     0.619424     0.086353  Biso 1.000000     O
    O   1.0     0.229927     0.508257     0.085949  Biso 1.000000     O
    O   1.0     0.229934     0.000000     0.085948  Biso 1.000000     O
    O   1.0     0.729933     0.508265     0.085962  Biso 1.000000     O
    O   1.0     0.729937     0.000000     0.085962  Biso 1.000000     O
    O   1.0     0.234313     0.161103     0.847480  Biso 1.000000     O
    O   1.0     0.234323     0.661110     0.847479  Biso 1.000000     O
    O   1.0     0.734318     0.161110     0.847486  Biso 1.000000     O
    O   1.0     0.734326     0.661117     0.847486  Biso 1.000000     O
    O   1.0     0.144408     0.100080     0.953340  Biso 1.000000     O
    O   1.0     0.144416     0.600087     0.953339  Biso 1.000000     O
    O   1.0     0.644412     0.100081     0.953342  Biso 1.000000     O
    O   1.0     0.644419     0.600091     0.953343  Biso 1.000000     O
    O   1.0     0.379708     0.160528     0.838128  Biso 1.000000     O
    O   1.0     0.379717     0.660539     0.838130  Biso 1.000000     O
    O   1.0     0.879708     0.160531     0.838138  Biso 1.000000     O
    O   1.0     0.879718     0.660539     0.838135  Biso 1.000000     O
    O   1.0     0.391195     0.102583     0.948296  Biso 1.000000     O
    O   1.0     0.391202     0.602589     0.948296  Biso 1.000000     O
    O   1.0     0.891198     0.102584     0.948303  Biso 1.000000     O
    O   1.0     0.891207     0.602595     0.948301  Biso 1.000000     O
    O   1.0     0.087251     0.222418     0.585696  Biso 1.000000     O
    O   1.0     0.087262     0.722426     0.585694  Biso 1.000000     O
    O   1.0     0.587261     0.222429     0.585698  Biso 1.000000     O
    O   1.0     0.587269     0.722436     0.585698  Biso 1.000000     O
    O   1.0     0.198528     0.226683     0.585854  Biso 1.000000     O
    O   1.0     0.198539     0.726694     0.585853  Biso 1.000000     O
    O   1.0     0.698538     0.226717     0.585860  Biso 1.000000     O
    O   1.0     0.698546     0.726727     0.585860  Biso 1.000000     O
    O   1.0     0.334827     0.158914     0.652942  Biso 1.000000     O
    O   1.0     0.334843     0.658926     0.652939  Biso 1.000000     O
    O   1.0     0.834847     0.158927     0.652941  Biso 1.000000     O
    O   1.0     0.834853     0.658939     0.652941  Biso 1.000000     O
    O   1.0     0.327952     0.122231     0.546484  Biso 1.000000     O
    O   1.0     0.327957     0.622242     0.546484  Biso 1.000000     O
    O   1.0     0.827949     0.122237     0.546495  Biso 1.000000     O
    O   1.0     0.827958     0.622248     0.546493  Biso 1.000000     O
    O   1.0     0.328074     0.299490     0.661740  Biso 1.000000     O
    O   1.0     0.328083     0.799502     0.661741  Biso 1.000000     O
    O   1.0     0.828078     0.299501     0.661756  Biso 1.000000     O
    O   1.0     0.828084     0.799513     0.661758  Biso 1.000000     O
    O   1.0     0.326448     0.366506     0.551219  Biso 1.000000     O
    O   1.0     0.326465     0.866517     0.551215  Biso 1.000000     O
    O   1.0     0.826464     0.366515     0.551229  Biso 1.000000     O
    O   1.0     0.826475     0.866526     0.551227  Biso 1.000000     O
    O   1.0     0.266708     0.380603     0.913631  Biso 1.000000     O
    O   1.0     0.266717     0.880614     0.913629  Biso 1.000000     O
    O   1.0     0.766713     0.380612     0.913640  Biso 1.000000     O
    O   1.0     0.766725     0.880624     0.913638  Biso 1.000000     O
    O   1.0     0.270079    -0.008253     0.914029  Biso 1.000000     O
    O   1.0     0.270083     0.491760     0.914028  Biso 1.000000     O
    O   1.0     0.770081    -0.008244     0.914042  Biso 1.000000     O
    O   1.0     0.770087     0.491768     0.914042  Biso 1.000000     O
   Ca   1.0     0.233546     0.406528     0.043481  Biso 1.000000    Ca
   Ca   1.0     0.233553     0.906541     0.043482  Biso 1.000000    Ca
   Ca   1.0     0.733548     0.406537     0.043492  Biso 1.000000    Ca
   Ca   1.0     0.733557     0.906550     0.043491  Biso 1.000000    Ca
   Ca   1.0     0.178479     0.254519     0.456181  Biso 1.000000    Ca
   Ca   1.0     0.178490     0.754530     0.456180  Biso 1.000000    Ca
   Ca   1.0     0.678491     0.254533     0.456187  Biso 1.000000    Ca
   Ca   1.0     0.678498     0.754543     0.456186  Biso 1.000000    Ca
   Ca   1.0     0.266459     0.093474     0.956495  Biso 1.000000    Ca
   Ca   1.0     0.266467     0.593489     0.956495  Biso 1.000000    Ca
   Ca   1.0     0.766462     0.093483     0.956504  Biso 1.000000    Ca
   Ca   1.0     0.766471     0.593498     0.956504  Biso 1.000000    Ca
   Ca   1.0     0.321518     0.245497     0.543800  Biso 1.000000    Ca
   Ca   1.0     0.321530     0.745507     0.543799  Biso 1.000000    Ca
   Ca   1.0     0.821529     0.245511     0.543805  Biso 1.000000    Ca
   Ca   1.0     0.821536     0.745521     0.543805  Biso 1.000000    Ca
   Ca   1.0     0.164274     0.287976     0.249716  Biso 1.000000    Ca
   Ca   1.0     0.164283     0.787984     0.249715  Biso 1.000000    Ca
   Ca   1.0     0.664281     0.287983     0.249724  Biso 1.000000    Ca
   Ca   1.0     0.664288     0.787993     0.249723  Biso 1.000000    Ca
   Ca   1.0     0.335722     0.212042     0.750268  Biso 1.000000    Ca
   Ca   1.0     0.335732     0.712052     0.750268  Biso 1.000000    Ca
   Ca   1.0     0.835727     0.212050     0.750277  Biso 1.000000    Ca
   Ca   1.0     0.835735     0.712060     0.750276  Biso 1.000000    Ca
