#======================================================================

# CRYSTAL DATA

#----------------------------------------------------------------------

data_VESTA_phase_1


_pd_phase_name                         MOF
_cell_length_a                         18.41300
_cell_length_b                         16.82500
_cell_length_c                         19.01700
_cell_angle_alpha                      90.00000
_cell_angle_beta                       90.00000
_cell_angle_gamma                      100.56000
_symmetry_space_group_name_H-M         "P 1"
_symmetry_Int_Tables_number            1

loop_
_symmetry_equiv_pos_as_xyz
   "x, y, z"

loop_
   _atom_site_label
   _atom_site_occupancy
   _atom_site_fract_x
   _atom_site_fract_y
   _atom_site_fract_z
   _atom_site_adp_type
   _atom_site_B_iso_or_equiv
   _atom_site_type_symbol
    H   1.0     0.215797     0.557965     0.926273  Biso 1.000000     H
    H   1.0     0.723178     0.557964     0.926274  Biso 1.000000     H
    H   1.0     0.261912     0.657833     0.834778  Biso 1.000000     H
    H   1.0     0.769294     0.657833     0.834781  Biso 1.000000     H
    H   1.0     0.110825     0.806036     0.913143  Biso 1.000000     H
    H   1.0     0.618207     0.806036     0.913145  Biso 1.000000     H
    H   1.0     0.069818     0.698199     0.008170  Biso 1.000000     H
    H   1.0     0.577199     0.698198     0.008171  Biso 1.000000     H
    H   1.0     0.212473     0.021573     0.756383  Biso 1.000000     H
    H   1.0     0.719854     0.021574     0.756385  Biso 1.000000     H
    H   1.0     0.119909     0.983392     0.763343  Biso 1.000000     H
    H   1.0     0.627291     0.983392     0.763347  Biso 1.000000     H
    H   1.0     0.168019     0.996953     0.680505  Biso 1.000000     H
    H   1.0     0.675400     0.996953     0.680508  Biso 1.000000     H
    H   1.0     0.286911     0.978016     0.428722  Biso 1.000000     H
    H   1.0     0.794290     0.978014     0.428720  Biso 1.000000     H
    H   1.0     0.240787     0.878143     0.337234  Biso 1.000000     H
    H   1.0     0.748168     0.878141     0.337231  Biso 1.000000     H
    H   1.0     0.391855     0.729926     0.415613  Biso 1.000000     H
    H   1.0     0.899238     0.729925     0.415611  Biso 1.000000     H
    H   1.0     0.432882     0.837771     0.505728  Biso 1.000000     H
    H   1.0     0.940263     0.837771     0.505727  Biso 1.000000     H
    H   1.0     0.293335     0.490410     0.258850  Biso 1.000000     H
    H   1.0     0.800716     0.490407     0.258849  Biso 1.000000     H
    H   1.0     0.382774     0.552571     0.265811  Biso 1.000000     H
    H   1.0     0.890155     0.552570     0.265808  Biso 1.000000     H
    H   1.0     0.334667     0.539010     0.182972  Biso 1.000000     H
    H   1.0     0.842045     0.539008     0.182970  Biso 1.000000     H
    H   1.0     0.104885     0.355524     0.115926  Biso 1.000000     H
    H   1.0     0.612266     0.355525     0.115929  Biso 1.000000     H
    H   1.0     0.058581     0.256482     0.210679  Biso 1.000000     H
    H   1.0     0.565962     0.256484     0.210682  Biso 1.000000     H
    H   1.0     0.406326     0.405720     0.263378  Biso 1.000000     H
    H   1.0     0.913708     0.405721     0.263381  Biso 1.000000     H
    H   1.0     0.460067     0.499227     0.165576  Biso 1.000000     H
    H   1.0     0.967449     0.499229     0.165580  Biso 1.000000     H
    H   1.0     0.325319     0.245834     0.489353  Biso 1.000000     H
    H   1.0     0.832699     0.245832     0.489354  Biso 1.000000     H
    H   1.0     0.278450     0.161608     0.442771  Biso 1.000000     H
    H   1.0     0.785831     0.161606     0.442771  Biso 1.000000     H
    H   1.0     0.274617     0.261714     0.412144  Biso 1.000000     H
    H   1.0     0.781997     0.261713     0.412145  Biso 1.000000     H
    H   1.0     0.400952     0.156474     0.613473  Biso 1.000000     H
    H   1.0     0.908332     0.156475     0.613469  Biso 1.000000     H
    H   1.0     0.447265     0.255520     0.708219  Biso 1.000000     H
    H   1.0     0.954645     0.255523     0.708215  Biso 1.000000     H
    H   1.0     0.099512     0.106278     0.760920  Biso 1.000000     H
    H   1.0     0.606896     0.106280     0.760916  Biso 1.000000     H
    H   1.0     0.045764     0.012766     0.663124  Biso 1.000000     H
    H   1.0     0.553147     0.012768     0.663120  Biso 1.000000     H
    H   1.0     0.180524     0.266179     0.986896  Biso 1.000000     H
    H   1.0     0.687907     0.266177     0.986895  Biso 1.000000     H
    H   1.0     0.227397     0.350391     0.940302  Biso 1.000000     H
    H   1.0     0.734779     0.350391     0.940302  Biso 1.000000     H
    H   1.0     0.231219     0.250278     0.909688  Biso 1.000000     H
    H   1.0     0.738601     0.250278     0.909686  Biso 1.000000     H
    H   1.0     0.399379     0.668452     0.879157  Biso 1.000000     H
    H   1.0     0.906761     0.668454     0.879160  Biso 1.000000     H
    H   1.0     0.445688     0.767493     0.784405  Biso 1.000000     H
    H   1.0     0.953069     0.767495     0.784409  Biso 1.000000     H
    H   1.0     0.097939     0.618253     0.731709  Biso 1.000000     H
    H   1.0     0.605323     0.618255     0.731713  Biso 1.000000     H
    H   1.0     0.044196     0.524746     0.829510  Biso 1.000000     H
    H   1.0     0.551578     0.524748     0.829514  Biso 1.000000     H
    H   1.0     0.178950     0.778142     0.505735  Biso 1.000000     H
    H   1.0     0.686334     0.778141     0.505737  Biso 1.000000     H
    H   1.0     0.225823     0.862364     0.552319  Biso 1.000000     H
    H   1.0     0.733206     0.862364     0.552322  Biso 1.000000     H
    H   1.0     0.229649     0.762255     0.582943  Biso 1.000000     H
    H   1.0     0.737032     0.762255     0.582947  Biso 1.000000     H
    H   1.0     0.103314     0.867507     0.381629  Biso 1.000000     H
    H   1.0     0.610695     0.867509     0.381625  Biso 1.000000     H
    H   1.0     0.057007     0.768462     0.286879  Biso 1.000000     H
    H   1.0     0.564387     0.768464     0.286876  Biso 1.000000     H
    H   1.0     0.404757     0.917704     0.234175  Biso 1.000000     H
    H   1.0     0.912139     0.917706     0.234170  Biso 1.000000     H
    H   1.0     0.458501     0.000000     0.331973  Biso 1.000000     H
    H   1.0     0.965882     0.000000     0.331969  Biso 1.000000     H
    H   1.0     0.323751     0.757800     0.008196  Biso 1.000000     H
    H   1.0     0.831133     0.757798     0.008195  Biso 1.000000     H
    H   1.0     0.276880     0.673585     0.054788  Biso 1.000000     H
    H   1.0     0.784262     0.673583     0.054788  Biso 1.000000     H
    H   1.0     0.273052     0.773697     0.085403  Biso 1.000000     H
    H   1.0     0.780433     0.773696     0.085400  Biso 1.000000     H
    H   1.0     0.288474     0.466021     0.068818  Biso 1.000000     H
    H   1.0     0.795854     0.466019     0.068819  Biso 1.000000     H
    H   1.0     0.242349     0.366151     0.160308  Biso 1.000000     H
    H   1.0     0.749730     0.366148     0.160309  Biso 1.000000     H
    H   1.0     0.393437     0.217944     0.081951  Biso 1.000000     H
    H   1.0     0.900820     0.217944     0.081952  Biso 1.000000     H
    H   1.0     0.434453     0.325783     0.986929  Biso 1.000000     H
    H   1.0     0.941835     0.325783     0.986930  Biso 1.000000     H
    H   1.0     0.291782     0.000000     0.238705  Biso 1.000000     H
    H   1.0     0.799163     0.000000     0.238706  Biso 1.000000     H
    H   1.0     0.384345     0.040589     0.231747  Biso 1.000000     H
    H   1.0     0.891725     0.040588     0.231750  Biso 1.000000     H
    H   1.0     0.336233     0.027025     0.314584  Biso 1.000000     H
    H   1.0     0.843612     0.027025     0.314585  Biso 1.000000     H
    H   1.0     0.217362     0.045973     0.566373  Biso 1.000000     H
    H   1.0     0.724743     0.045972     0.566372  Biso 1.000000     H
    H   1.0     0.263481     0.145847     0.657862  Biso 1.000000     H
    H   1.0     0.770863     0.145847     0.657860  Biso 1.000000     H
    H   1.0     0.112413     0.294061     0.579475  Biso 1.000000     H
    H   1.0     0.619796     0.294061     0.579473  Biso 1.000000     H
    H   1.0     0.071392     0.186214     0.489359  Biso 1.000000     H
    H   1.0     0.578773     0.186214     0.489358  Biso 1.000000     H
    H   1.0     0.210925     0.533577     0.736238  Biso 1.000000     H
    H   1.0     0.718306     0.533576     0.736237  Biso 1.000000     H
    H   1.0     0.121486     0.471415     0.729279  Biso 1.000000     H
    H   1.0     0.628866     0.471414     0.729276  Biso 1.000000     H
    H   1.0     0.169594     0.484979     0.812118  Biso 1.000000     H
    H   1.0     0.676973     0.484978     0.812116  Biso 1.000000     H
    C   1.0     0.193519     0.613522     0.922259  Biso 1.000000     C
    C   1.0     0.700900     0.613521     0.922261  Biso 1.000000     C
    C   1.0     0.219623     0.670608     0.870999  Biso 1.000000     C
    C   1.0     0.727005     0.670608     0.871001  Biso 1.000000     C
    C   1.0     0.190031     0.741688     0.866211  Biso 1.000000     C
    C   1.0     0.697414     0.741688     0.866213  Biso 1.000000     C
    C   1.0     0.135024     0.751737     0.915139  Biso 1.000000     C
    C   1.0     0.642406     0.751737     0.915141  Biso 1.000000     C
    C   1.0     0.112247     0.692224     0.964720  Biso 1.000000     C
    C   1.0     0.619628     0.692223     0.964721  Biso 1.000000     C
    C   1.0     0.212465     0.804701     0.813615  Biso 1.000000     C
    C   1.0     0.719848     0.804702     0.813618  Biso 1.000000     C
    C   1.0     0.268522     0.896279     0.720906  Biso 1.000000     C
    C   1.0     0.775904     0.896282     0.720909  Biso 1.000000     C
    C   1.0     0.207202     0.917547     0.753661  Biso 1.000000     C
    C   1.0     0.714584     0.917548     0.753664  Biso 1.000000     C
    C   1.0     0.315499     0.937892     0.663536  Biso 1.000000     C
    C   1.0     0.822880     0.937894     0.663538  Biso 1.000000     C
    C   1.0     0.173816     0.989928     0.737378  Biso 1.000000     C
    C   1.0     0.681198     0.989929     0.737382  Biso 1.000000     C
    C   1.0     0.309182     0.922454     0.424713  Biso 1.000000     C
    C   1.0     0.816562     0.922453     0.424711  Biso 1.000000     C
    C   1.0     0.283077     0.865369     0.373453  Biso 1.000000     C
    C   1.0     0.790457     0.865366     0.373452  Biso 1.000000     C
    C   1.0     0.312658     0.794281     0.368673  Biso 1.000000     C
    C   1.0     0.820039     0.794279     0.368671  Biso 1.000000     C
    C   1.0     0.367666     0.784232     0.417600  Biso 1.000000     C
    C   1.0     0.875046     0.784230     0.417600  Biso 1.000000     C
    C   1.0     0.390443     0.843744     0.467182  Biso 1.000000     C
    C   1.0     0.897824     0.843744     0.467180  Biso 1.000000     C
    C   1.0     0.290224     0.731268     0.316076  Biso 1.000000     C
    C   1.0     0.797605     0.731266     0.316076  Biso 1.000000     C
    C   1.0     0.234171     0.639694     0.223362  Biso 1.000000     C
    C   1.0     0.741548     0.639689     0.223364  Biso 1.000000     C
    C   1.0     0.295483     0.618418     0.256125  Biso 1.000000     C
    C   1.0     0.802863     0.618416     0.256124  Biso 1.000000     C
    C   1.0     0.187194     0.598084     0.165989  Biso 1.000000     C
    C   1.0     0.694571     0.598080     0.165992  Biso 1.000000     C
    C   1.0     0.328868     0.546036     0.239845  Biso 1.000000     C
    C   1.0     0.836248     0.546034     0.239843  Biso 1.000000     C
    C   1.0     0.059629     0.364351     0.150295  Biso 1.000000     C
    C   1.0     0.567009     0.364353     0.150297  Biso 1.000000     C
    C   1.0     0.033341     0.309628     0.203084  Biso 1.000000     C
    C   1.0     0.540719     0.309628     0.203084  Biso 1.000000     C
    C   1.0     0.482110     0.323739     0.245872  Biso 1.000000     C
    C   1.0     0.989490     0.323739     0.245872  Biso 1.000000     C
    C   1.0     0.452086     0.393117     0.231706  Biso 1.000000     C
    C   1.0     0.959468     0.393119     0.231709  Biso 1.000000     C
    C   1.0     0.481644     0.444776     0.177977  Biso 1.000000     C
    C   1.0     0.989025     0.444777     0.177979  Biso 1.000000     C
    C   1.0     0.452489     0.270527     0.303789  Biso 1.000000     C
    C   1.0     0.959869     0.270527     0.303790  Biso 1.000000     C
    C   1.0     0.426767     0.171046     0.397453  Biso 1.000000     C
    C   1.0     0.934147     0.171046     0.397454  Biso 1.000000     C
    C   1.0     0.376326     0.223440     0.391500  Biso 1.000000     C
    C   1.0     0.883706     0.223439     0.391501  Biso 1.000000     C
    C   1.0     0.428375     0.105230     0.448754  Biso 1.000000     C
    C   1.0     0.935755     0.105230     0.448754  Biso 1.000000     C
    C   1.0     0.309628     0.223125     0.436218  Biso 1.000000     C
    C   1.0     0.817008     0.223124     0.436219  Biso 1.000000     C
    C   1.0     0.446210     0.147647     0.647839  Biso 1.000000     C
    C   1.0     0.953589     0.147648     0.647837  Biso 1.000000     C
    C   1.0     0.472503     0.202372     0.700625  Biso 1.000000     C
    C   1.0     0.979881     0.202374     0.700623  Biso 1.000000     C
    C   1.0     0.023733     0.188263     0.743410  Biso 1.000000     C
    C   1.0     0.531114     0.188262     0.743410  Biso 1.000000     C
    C   1.0     0.053752     0.118880     0.729249  Biso 1.000000     C
    C   1.0     0.561134     0.118881     0.729247  Biso 1.000000     C
    C   1.0     0.024191     0.067220     0.675522  Biso 1.000000     C
    C   1.0     0.531573     0.067221     0.675520  Biso 1.000000     C
    C   1.0     0.053354     0.241475     0.801327  Biso 1.000000     C
    C   1.0     0.560735     0.241474     0.801327  Biso 1.000000     C
    C   1.0     0.079072     0.340951     0.894995  Biso 1.000000     C
    C   1.0     0.586453     0.340950     0.894995  Biso 1.000000     C
    C   1.0     0.129515     0.288560     0.889040  Biso 1.000000     C
    C   1.0     0.636897     0.288559     0.889041  Biso 1.000000     C
    C   1.0     0.077459     0.406762     0.946299  Biso 1.000000     C
    C   1.0     0.584840     0.406761     0.946300  Biso 1.000000     C
    C   1.0     0.196213     0.288875     0.933758  Biso 1.000000     C
    C   1.0     0.703596     0.288874     0.933757  Biso 1.000000     C
    C   1.0     0.444638     0.659624     0.844791  Biso 1.000000     C
    C   1.0     0.952018     0.659625     0.844793  Biso 1.000000     C
    C   1.0     0.470929     0.714347     0.792003  Biso 1.000000     C
    C   1.0     0.978307     0.714348     0.792004  Biso 1.000000     C
    C   1.0     0.022159     0.700237     0.749217  Biso 1.000000     C
    C   1.0     0.529539     0.700237     0.749218  Biso 1.000000     C
    C   1.0     0.052180     0.630856     0.763380  Biso 1.000000     C
    C   1.0     0.559562     0.630858     0.763383  Biso 1.000000     C
    C   1.0     0.022621     0.579198     0.817110  Biso 1.000000     C
    C   1.0     0.530002     0.579199     0.817112  Biso 1.000000     C
    C   1.0     0.051781     0.753449     0.691300  Biso 1.000000     C
    C   1.0     0.559162     0.753448     0.691301  Biso 1.000000     C
    C   1.0     0.077505     0.852932     0.597638  Biso 1.000000     C
    C   1.0     0.584887     0.852931     0.597638  Biso 1.000000     C
    C   1.0     0.127944     0.800536     0.603589  Biso 1.000000     C
    C   1.0     0.635326     0.800536     0.603590  Biso 1.000000     C
    C   1.0     0.075898     0.918751     0.546341  Biso 1.000000     C
    C   1.0     0.583279     0.918750     0.546340  Biso 1.000000     C
    C   1.0     0.194641     0.800847     0.558870  Biso 1.000000     C
    C   1.0     0.702024     0.800847     0.558873  Biso 1.000000     C
    C   1.0     0.058058     0.876335     0.347259  Biso 1.000000     C
    C   1.0     0.565437     0.876336     0.347258  Biso 1.000000     C
    C   1.0     0.031768     0.821610     0.294472  Biso 1.000000     C
    C   1.0     0.539148     0.821612     0.294470  Biso 1.000000     C
    C   1.0     0.480538     0.835721     0.251683  Biso 1.000000     C
    C   1.0     0.987918     0.835721     0.251682  Biso 1.000000     C
    C   1.0     0.450518     0.905103     0.265845  Biso 1.000000     C
    C   1.0     0.957898     0.905103     0.265843  Biso 1.000000     C
    C   1.0     0.480076     0.956761     0.319575  Biso 1.000000     C
    C   1.0     0.987457     0.956763     0.319572  Biso 1.000000     C
    C   1.0     0.450919     0.782510     0.193765  Biso 1.000000     C
    C   1.0     0.958299     0.782509     0.193765  Biso 1.000000     C
    C   1.0     0.425203     0.683032     0.100098  Biso 1.000000     C
    C   1.0     0.932583     0.683030     0.100099  Biso 1.000000     C
    C   1.0     0.374758     0.735421     0.106052  Biso 1.000000     C
    C   1.0     0.882139     0.735420     0.106052  Biso 1.000000     C
    C   1.0     0.426815     0.617220     0.048795  Biso 1.000000     C
    C   1.0     0.934196     0.617219     0.048795  Biso 1.000000     C
    C   1.0     0.308060     0.735103     0.061334  Biso 1.000000     C
    C   1.0     0.815442     0.735101     0.061332  Biso 1.000000     C
    C   1.0     0.310750     0.410462     0.072832  Biso 1.000000     C
    C   1.0     0.818131     0.410461     0.072834  Biso 1.000000     C
    C   1.0     0.284642     0.353376     0.124091  Biso 1.000000     C
    C   1.0     0.792021     0.353373     0.124091  Biso 1.000000     C
    C   1.0     0.314229     0.282293     0.128880  Biso 1.000000     C
    C   1.0     0.821611     0.282292     0.128881  Biso 1.000000     C
    C   1.0     0.369241     0.272245     0.079956  Biso 1.000000     C
    C   1.0     0.876621     0.272243     0.079956  Biso 1.000000     C
    C   1.0     0.392021     0.331758     0.030376  Biso 1.000000     C
    C   1.0     0.899404     0.331758     0.030378  Biso 1.000000     C
    C   1.0     0.291792     0.219279     0.181475  Biso 1.000000     C
    C   1.0     0.799171     0.219276     0.181474  Biso 1.000000     C
    C   1.0     0.235730     0.127699     0.274182  Biso 1.000000     C
    C   1.0     0.743105     0.127693     0.274177  Biso 1.000000     C
    C   1.0     0.297051     0.106431     0.241429  Biso 1.000000     C
    C   1.0     0.804430     0.106429     0.241428  Biso 1.000000     C
    C   1.0     0.188751     0.086088     0.331553  Biso 1.000000     C
    C   1.0     0.696126     0.086083     0.331549  Biso 1.000000     C
    C   1.0     0.330437     0.034050     0.257711  Biso 1.000000     C
    C   1.0     0.837817     0.034049     0.257712  Biso 1.000000     C
    C   1.0     0.195090     0.101534     0.570380  Biso 1.000000     C
    C   1.0     0.702472     0.101533     0.570379  Biso 1.000000     C
    C   1.0     0.221193     0.158622     0.621639  Biso 1.000000     C
    C   1.0     0.728573     0.158620     0.621639  Biso 1.000000     C
    C   1.0     0.191610     0.229707     0.626418  Biso 1.000000     C
    C   1.0     0.698992     0.229707     0.626417  Biso 1.000000     C
    C   1.0     0.136605     0.239757     0.577488  Biso 1.000000     C
    C   1.0     0.643986     0.239755     0.577487  Biso 1.000000     C
    C   1.0     0.113829     0.180242     0.527908  Biso 1.000000     C
    C   1.0     0.621211     0.180242     0.527906  Biso 1.000000     C
    C   1.0     0.214041     0.292721     0.679015  Biso 1.000000     C
    C   1.0     0.721421     0.292719     0.679014  Biso 1.000000     C
    C   1.0     0.270089     0.384294     0.771730  Biso 1.000000     C
    C   1.0     0.777467     0.384292     0.771732  Biso 1.000000     C
    C   1.0     0.208777     0.405568     0.738967  Biso 1.000000     C
    C   1.0     0.716157     0.405567     0.738966  Biso 1.000000     C
    C   1.0     0.317061     0.425902     0.829106  Biso 1.000000     C
    C   1.0     0.824439     0.425900     0.829108  Biso 1.000000     C
    C   1.0     0.175392     0.477951     0.755245  Biso 1.000000     C
    C   1.0     0.682772     0.477950     0.755243  Biso 1.000000     C
    N   1.0     0.140281     0.623552     0.968467  Biso 1.000000     N
    N   1.0     0.647661     0.623551     0.968468  Biso 1.000000     N
    N   1.0     0.176742     0.865840     0.805593  Biso 1.000000     N
    N   1.0     0.684124     0.865841     0.805596  Biso 1.000000     N
    N   1.0     0.362416     0.912421     0.470924  Biso 1.000000     N
    N   1.0     0.869797     0.912420     0.470922  Biso 1.000000     N
    N   1.0     0.325943     0.670125     0.308057  Biso 1.000000     N
    N   1.0     0.833324     0.670123     0.308056  Biso 1.000000     N
    N   1.0     0.031075     0.431357     0.137674  Biso 1.000000     N
    N   1.0     0.538455     0.431357     0.137674  Biso 1.000000     N
    N   1.0     0.392085     0.279292     0.338869  Biso 1.000000     N
    N   1.0     0.899466     0.279293     0.338870  Biso 1.000000     N
    N   1.0     0.474761     0.080640     0.635218  Biso 1.000000     N
    N   1.0     0.982139     0.080639     0.635218  Biso 1.000000     N
    N   1.0     0.113757     0.232709     0.836408  Biso 1.000000     N
    N   1.0     0.621139     0.232709     0.836408  Biso 1.000000     N
    N   1.0     0.473191     0.592619     0.857415  Biso 1.000000     N
    N   1.0     0.980570     0.592619     0.857415  Biso 1.000000     N
    N   1.0     0.112183     0.744681     0.656218  Biso 1.000000     N
    N   1.0     0.619565     0.744682     0.656220  Biso 1.000000     N
    N   1.0     0.029507     0.943343     0.359878  Biso 1.000000     N
    N   1.0     0.536885     0.943342     0.359879  Biso 1.000000     N
    N   1.0     0.390515     0.791273     0.158684  Biso 1.000000     N
    N   1.0     0.897895     0.791272     0.158684  Biso 1.000000     N
    N   1.0     0.363990     0.400431     0.026627  Biso 1.000000     N
    N   1.0     0.871372     0.400431     0.026629  Biso 1.000000     N
    N   1.0     0.327514     0.158140     0.189498  Biso 1.000000     N
    N   1.0     0.834894     0.158138     0.189499  Biso 1.000000     N
    N   1.0     0.141856     0.111566     0.524168  Biso 1.000000     N
    N   1.0     0.649238     0.111566     0.524166  Biso 1.000000     N
    N   1.0     0.178320     0.353862     0.687032  Biso 1.000000     N
    N   1.0     0.685701     0.353861     0.687031  Biso 1.000000     N
    O   1.0     0.371602     0.907721     0.645171  Biso 1.000000     O
    O   1.0     0.878980     0.907720     0.645170  Biso 1.000000     O
    O   1.0     0.298067     0.000000     0.635550  Biso 1.000000     O
    O   1.0     0.805445     0.000000     0.635550  Biso 1.000000     O
    O   1.0     0.131089     0.628252     0.147628  Biso 1.000000     O
    O   1.0     0.638469     0.628253     0.147627  Biso 1.000000     O
    O   1.0     0.204620     0.535598     0.138008  Biso 1.000000     O
    O   1.0     0.712000     0.535599     0.138006  Biso 1.000000     O
    O   1.0     0.480701     0.064736     0.445329  Biso 1.000000     O
    O   1.0     0.988080     0.064735     0.445329  Biso 1.000000     O
    O   1.0     0.376853     0.091774     0.494386  Biso 1.000000     O
    O   1.0     0.884232     0.091774     0.494386  Biso 1.000000     O
    O   1.0     0.025138     0.447262     0.942870  Biso 1.000000     O
    O   1.0     0.532519     0.447261     0.942870  Biso 1.000000     O
    O   1.0     0.128970     0.420208     0.991941  Biso 1.000000     O
    O   1.0     0.636351     0.420207     0.991942  Biso 1.000000     O
    O   1.0     0.023580     0.959254     0.549774  Biso 1.000000     O
    O   1.0     0.530961     0.959254     0.549774  Biso 1.000000     O
    O   1.0     0.127412     0.932201     0.500702  Biso 1.000000     O
    O   1.0     0.634793     0.932200     0.500702  Biso 1.000000     O
    O   1.0     0.479143     0.576729     0.052218  Biso 1.000000     O
    O   1.0     0.986524     0.576728     0.052218  Biso 1.000000     O
    O   1.0     0.375296     0.603766     0.003160  Biso 1.000000     O
    O   1.0     0.882676     0.603765     0.003160  Biso 1.000000     O
    O   1.0     0.132652     0.116264     0.349922  Biso 1.000000     O
    O   1.0     0.640033     0.116265     0.349923  Biso 1.000000     O
    O   1.0     0.206184     0.023611     0.359543  Biso 1.000000     O
    O   1.0     0.713565     0.023612     0.359546  Biso 1.000000     O
    O   1.0     0.373163     0.395730     0.847471  Biso 1.000000     O
    O   1.0     0.880543     0.395730     0.847471  Biso 1.000000     O
    O   1.0     0.299629     0.488382     0.857091  Biso 1.000000     O
    O   1.0     0.807008     0.488382     0.857091  Biso 1.000000     O
    S   1.0     0.286921     0.807790     0.756903  Biso 1.000000     S
    S   1.0     0.794303     0.807791     0.756905  Biso 1.000000     S
    S   1.0     0.215771     0.728183     0.259361  Biso 1.000000     S
    S   1.0     0.723150     0.728180     0.259361  Biso 1.000000     S
    S   1.0     0.494749     0.193021     0.334085  Biso 1.000000     S
    S   1.0     0.000000     0.193021     0.334086  Biso 1.000000     S
    S   1.0     0.011091     0.318978     0.831626  Biso 1.000000     S
    S   1.0     0.518472     0.318977     0.831627  Biso 1.000000     S
    S   1.0     0.009524     0.830959     0.661007  Biso 1.000000     S
    S   1.0     0.516905     0.830958     0.661007  Biso 1.000000     S
    S   1.0     0.493184     0.705008     0.163467  Biso 1.000000     S
    S   1.0     0.000000     0.705007     0.163468  Biso 1.000000     S
    S   1.0     0.217335     0.216192     0.238187  Biso 1.000000     S
    S   1.0     0.724713     0.216189     0.238185  Biso 1.000000     S
    S   1.0     0.288491     0.295805     0.735734  Biso 1.000000     S
    S   1.0     0.795871     0.295804     0.735734  Biso 1.000000     S
   Cd   1.0     0.410209     0.000000     0.556612  Biso 1.000000    Cd
   Cd   1.0     0.917588     0.000000     0.556611  Biso 1.000000    Cd
   Cd   1.0     0.092497     0.528607     0.059060  Biso 1.000000    Cd
   Cd   1.0     0.599877     0.528606     0.059060  Biso 1.000000    Cd
   Cd   1.0     0.094058     0.016614     0.438487  Biso 1.000000    Cd
   Cd   1.0     0.601438     0.016613     0.438487  Biso 1.000000    Cd
   Cd   1.0     0.411770     0.495374     0.936032  Biso 1.000000    Cd
   Cd   1.0     0.919150     0.495373     0.936032  Biso 1.000000    Cd
