#======================================================================

# CRYSTAL DATA

#----------------------------------------------------------------------

data_VESTA_phase_1


_pd_phase_name                         MOF
_cell_length_a                         14.01300
_cell_length_b                         15.19300
_cell_length_c                         15.31700
_cell_angle_alpha                      86.58300
_cell_angle_beta                       85.39100
_cell_angle_gamma                      88.00500
_symmetry_space_group_name_H-M         "P 1"
_symmetry_Int_Tables_number            1

loop_
_symmetry_equiv_pos_as_xyz
   "x, y, z"

loop_
   _atom_site_label
   _atom_site_occupancy
   _atom_site_fract_x
   _atom_site_fract_y
   _atom_site_fract_z
   _atom_site_adp_type
   _atom_site_B_iso_or_equiv
   _atom_site_type_symbol
    H   1.0     0.203456     0.642810     0.984094  Biso 1.000000     H
    H   1.0     0.060692     0.584985     0.711323  Biso 1.000000     H
    H   1.0     0.238354     0.590766     0.708123  Biso 1.000000     H
    H   1.0     0.028153     0.630071     0.976157  Biso 1.000000     H
    H   1.0     0.627341     0.606616     0.302112  Biso 1.000000     H
    H   1.0     0.625171     0.605730     0.139331  Biso 1.000000     H
    H   1.0     0.931976     0.616734     0.121145  Biso 1.000000     H
    H   1.0     0.650889     0.656760     0.582579  Biso 1.000000     H
    H   1.0     0.640833     0.661590     0.421992  Biso 1.000000     H
    H   1.0     0.936518     0.574278     0.387985  Biso 1.000000     H
    H   1.0     0.945510     0.570404     0.550894  Biso 1.000000     H
    H   1.0     0.644772     0.318005     0.882160  Biso 1.000000     H
    H   1.0     0.652004     0.909222     0.875490  Biso 1.000000     H
    H   1.0     0.943545     0.343604     0.798218  Biso 1.000000     H
    H   1.0     0.963353     0.181850     0.788356  Biso 1.000000     H
    H   1.0     0.950710     0.872624     0.794594  Biso 1.000000     H
    H   1.0     0.966100     0.037426     0.789936  Biso 1.000000     H
    H   1.0     0.548599     0.662749     0.721536  Biso 1.000000     H
    H   1.0     0.522738     0.579815     0.983980  Biso 1.000000     H
    H   1.0     0.345423     0.572222     0.986077  Biso 1.000000     H
    H   1.0     0.371123     0.666620     0.712753  Biso 1.000000     H
    H   1.0     0.796430     0.357209     0.015903  Biso 1.000000     H
    H   1.0     0.939206     0.414980     0.288680  Biso 1.000000     H
    H   1.0     0.761543     0.409222     0.291879  Biso 1.000000     H
    H   1.0     0.971735     0.369925     0.023840  Biso 1.000000     H
    H   1.0     0.372595     0.393427     0.697897  Biso 1.000000     H
    H   1.0     0.374759     0.394293     0.860680  Biso 1.000000     H
    H   1.0     0.067958     0.383228     0.878858  Biso 1.000000     H
    H   1.0     0.349008     0.343293     0.417401  Biso 1.000000     H
    H   1.0     0.359115     0.338480     0.577982  Biso 1.000000     H
    H   1.0     0.063410     0.425719     0.612057  Biso 1.000000     H
    H   1.0     0.054368     0.429577     0.449153  Biso 1.000000     H
    H   1.0     0.355114     0.681954     0.117831  Biso 1.000000     H
    H   1.0     0.347919     0.090751     0.124452  Biso 1.000000     H
    H   1.0     0.056350     0.656395     0.201837  Biso 1.000000     H
    H   1.0     0.036579     0.818149     0.211723  Biso 1.000000     H
    H   1.0     0.049253     0.127354     0.205508  Biso 1.000000     H
    H   1.0     0.033859     0.962551     0.210182  Biso 1.000000     H
    H   1.0     0.451293     0.337197     0.278470  Biso 1.000000     H
    H   1.0     0.477119     0.420256     0.016061  Biso 1.000000     H
    H   1.0     0.654435     0.427841     0.013949  Biso 1.000000     H
    H   1.0     0.628769     0.333320     0.287236  Biso 1.000000     H
    C   1.0     0.237078     0.617134     0.846449  Biso 1.000000     C
    C   1.0     0.175904     0.628299     0.922288  Biso 1.000000     C
    C   1.0     0.793429     0.339086     0.843163  Biso 1.000000     C
    C   1.0     0.096123     0.597501     0.769913  Biso 1.000000     C
    C   1.0     0.778566     0.612447     0.117552  Biso 1.000000     C
    C   1.0     0.798305     0.612332     0.577111  Biso 1.000000     C
    C   1.0     0.194918     0.602075     0.768803  Biso 1.000000     C
    C   1.0     0.077788     0.622519     0.918502  Biso 1.000000     C
    C   1.0     0.781085     0.610381     0.019801  Biso 1.000000     C
    C   1.0     0.785966     0.436984     0.851146  Biso 1.000000     C
    C   1.0     0.693940     0.610743     0.260449  Biso 1.000000     C
    C   1.0     0.790193     0.781449     0.839253  Biso 1.000000     C
    C   1.0     0.692219     0.609651     0.170070  Biso 1.000000     C
    C   1.0     0.863203     0.615964     0.159988  Biso 1.000000     C
    C   1.0     0.802123     0.609977     0.674916  Biso 1.000000     C
    C   1.0     0.342054     0.619571     0.848901  Biso 1.000000     C
    C   1.0     0.782257     0.615323     0.297514  Biso 1.000000     C
    C   1.0     0.787777     0.615667     0.393553  Biso 1.000000     C
    C   1.0     0.712868     0.637783     0.539612  Biso 1.000000     C
    C   1.0     0.800239     0.879583     0.835334  Biso 1.000000     C
    C   1.0     0.707596     0.639604     0.449371  Biso 1.000000     C
    C   1.0     0.873917     0.591345     0.431271  Biso 1.000000     C
    C   1.0     0.878954     0.589616     0.521761  Biso 1.000000     C
    C   1.0     0.713691     0.285944     0.863289  Biso 1.000000     C
    C   1.0     0.722215     0.936006     0.856489  Biso 1.000000     C
    C   1.0     0.883346     0.301137     0.816075  Biso 1.000000     C
    C   1.0     0.723245     0.193867     0.859042  Biso 1.000000     C
    C   1.0     0.815204     0.156462     0.832435  Biso 1.000000     C
    C   1.0     0.817851     0.061381     0.830698  Biso 1.000000     C
    C   1.0     0.893662     0.210464     0.810306  Biso 1.000000     C
    C   1.0     0.889565     0.916333     0.810981  Biso 1.000000     C
    C   1.0     0.897535     0.007233     0.808630  Biso 1.000000     C
    C   1.0     0.499916     0.644448     0.778277  Biso 1.000000     C
    C   1.0     0.485461     0.597420     0.925375  Biso 1.000000     C
    C   1.0     0.386466     0.595277     0.926166  Biso 1.000000     C
    C   1.0     0.401348     0.645183     0.774092  Biso 1.000000     C
    C   1.0     0.762810     0.382865     0.153551  Biso 1.000000     C
    C   1.0     0.823983     0.371708     0.077712  Biso 1.000000     C
    C   1.0     0.206455     0.660893     0.156853  Biso 1.000000     C
    C   1.0     0.903774     0.402475     0.230087  Biso 1.000000     C
    C   1.0     0.221359     0.387612     0.882450  Biso 1.000000     C
    C   1.0     0.201573     0.387665     0.422906  Biso 1.000000     C
    C   1.0     0.804974     0.397916     0.231196  Biso 1.000000     C
    C   1.0     0.922103     0.377473     0.081499  Biso 1.000000     C
    C   1.0     0.218838     0.389612     0.980204  Biso 1.000000     C
    C   1.0     0.213893     0.562996     0.148870  Biso 1.000000     C
    C   1.0     0.305995     0.389298     0.739558  Biso 1.000000     C
    C   1.0     0.209752     0.218523     0.160761  Biso 1.000000     C
    C   1.0     0.307713     0.390372     0.829938  Biso 1.000000     C
    C   1.0     0.136730     0.384017     0.840016  Biso 1.000000     C
    C   1.0     0.197723     0.390009     0.325108  Biso 1.000000     C
    C   1.0     0.657824     0.380431     0.151105  Biso 1.000000     C
    C   1.0     0.217682     0.384677     0.702493  Biso 1.000000     C
    C   1.0     0.212157     0.384350     0.606454  Biso 1.000000     C
    C   1.0     0.287035     0.362253     0.460383  Biso 1.000000     C
    C   1.0     0.199705     0.120391     0.164688  Biso 1.000000     C
    C   1.0     0.292334     0.360438     0.550620  Biso 1.000000     C
    C   1.0     0.126001     0.408656     0.568758  Biso 1.000000     C
    C   1.0     0.120938     0.410381     0.478270  Biso 1.000000     C
    C   1.0     0.286204     0.714022     0.136720  Biso 1.000000     C
    C   1.0     0.277716     0.063966     0.143492  Biso 1.000000     C
    C   1.0     0.116553     0.698853     0.183969  Biso 1.000000     C
    C   1.0     0.276668     0.806101     0.140964  Biso 1.000000     C
    C   1.0     0.184722     0.843514     0.167604  Biso 1.000000     C
    C   1.0     0.182085     0.938594     0.169339  Biso 1.000000     C
    C   1.0     0.106257     0.789525     0.189750  Biso 1.000000     C
    C   1.0     0.110387     0.083644     0.189085  Biso 1.000000     C
    C   1.0     0.102416     0.992744     0.191447  Biso 1.000000     C
    C   1.0     0.499964     0.355527     0.221730  Biso 1.000000     C
    C   1.0     0.514400     0.402625     0.074658  Biso 1.000000     C
    C   1.0     0.613401     0.404763     0.073856  Biso 1.000000     C
    C   1.0     0.598538     0.354786     0.225907  Biso 1.000000     C
    N   1.0     0.038142     0.607132     0.843637  Biso 1.000000     N
    N   1.0     0.541794     0.620688     0.852691  Biso 1.000000     N
    N   1.0     0.866165     0.617494     0.246965  Biso 1.000000     N
    N   1.0     0.729462     0.024773     0.854887  Biso 1.000000     N
    N   1.0     0.961756     0.392836     0.156367  Biso 1.000000     N
    N   1.0     0.458072     0.379322     0.147334  Biso 1.000000     N
    N   1.0     0.133775     0.382470     0.753041  Biso 1.000000     N
    N   1.0     0.270464     0.975199     0.145097  Biso 1.000000     N
    O   1.0     0.862092     0.618426     0.977187  Biso 1.000000     O
    O   1.0     0.722905     0.625320     0.719689  Biso 1.000000     O
    O   1.0     0.701251     0.600404     0.987295  Biso 1.000000     O
    O   1.0     0.703754     0.475668     0.851427  Biso 1.000000     O
    O   1.0     0.882607     0.593016     0.705982  Biso 1.000000     O
    O   1.0     0.865003     0.474233     0.858808  Biso 1.000000     O
    O   1.0     0.707626     0.750430     0.859249  Biso 1.000000     O
    O   1.0     0.867370     0.736995     0.821951  Biso 1.000000     O
    O   1.0     0.137835     0.381538     0.022819  Biso 1.000000     O
    O   1.0     0.276923     0.374640     0.280322  Biso 1.000000     O
    O   1.0     0.298670     0.399564     0.012722  Biso 1.000000     O
    O   1.0     0.296103     0.524302     0.148578  Biso 1.000000     O
    O   1.0     0.117242     0.406981     0.294044  Biso 1.000000     O
    O   1.0     0.134845     0.525760     0.141208  Biso 1.000000     O
    O   1.0     0.292319     0.249539     0.140761  Biso 1.000000     O
    O   1.0     0.132581     0.262984     0.178071  Biso 1.000000     O
   Zn   1.0     0.891805     0.604144     0.840914  Biso 1.000000    Zn
   Zn   1.0     0.688859     0.614537     0.853034  Biso 1.000000    Zn
   Zn   1.0     0.108125     0.395832     0.159092  Biso 1.000000    Zn
   Zn   1.0     0.310951     0.385442     0.146994  Biso 1.000000    Zn
   Rh   1.0     0.624408     0.109895     0.884477  Biso 1.000000    Rh
   Rh   1.0     0.375507     0.890069     0.115504  Biso 1.000000    Rh
