#======================================================================

# CRYSTAL DATA

#----------------------------------------------------------------------

data_VESTA_phase_1


_pd_phase_name                         MOF
_cell_length_a                         20.17200
_cell_length_b                         23.19400
_cell_length_c                         14.79300
_cell_angle_alpha                      91.11500
_cell_angle_beta                       89.94000
_cell_angle_gamma                      89.98700
_symmetry_space_group_name_H-M         "P 1"
_symmetry_Int_Tables_number            1

loop_
_symmetry_equiv_pos_as_xyz
   "x, y, z"

loop_
   _atom_site_label
   _atom_site_occupancy
   _atom_site_fract_x
   _atom_site_fract_y
   _atom_site_fract_z
   _atom_site_adp_type
   _atom_site_B_iso_or_equiv
   _atom_site_type_symbol
    H   1.0     0.376130     0.428359     0.372297  Biso 1.000000     H
    H   1.0     0.376138     0.928360     0.372296  Biso 1.000000     H
    H   1.0     0.876138     0.428361     0.372296  Biso 1.000000     H
    H   1.0     0.876145     0.928358     0.372297  Biso 1.000000     H
    H   1.0     0.023261     0.237737     0.271976  Biso 1.000000     H
    H   1.0     0.023268     0.737736     0.271974  Biso 1.000000     H
    H   1.0     0.523271     0.237737     0.271973  Biso 1.000000     H
    H   1.0     0.523277     0.737736     0.271974  Biso 1.000000     H
    H   1.0     0.303983     0.280959     0.042719  Biso 1.000000     H
    H   1.0     0.303992     0.780960     0.042720  Biso 1.000000     H
    H   1.0     0.803993     0.280961     0.042721  Biso 1.000000     H
    H   1.0     0.803998     0.780961     0.042718  Biso 1.000000     H
    H   1.0     0.101191     0.490088     0.235114  Biso 1.000000     H
    H   1.0     0.101199     0.990085     0.235111  Biso 1.000000     H
    H   1.0     0.601199     0.490085     0.235113  Biso 1.000000     H
    H   1.0     0.601207     0.990085     0.235111  Biso 1.000000     H
    H   1.0     0.081816     0.345432     0.920315  Biso 1.000000     H
    H   1.0     0.081822     0.845432     0.920317  Biso 1.000000     H
    H   1.0     0.581821     0.345432     0.920317  Biso 1.000000     H
    H   1.0     0.581830     0.845432     0.920315  Biso 1.000000     H
    H   1.0     0.353404     0.501892     0.012205  Biso 1.000000     H
    H   1.0     0.353412     0.000000     0.012205  Biso 1.000000     H
    H   1.0     0.853414     0.501891     0.012205  Biso 1.000000     H
    H   1.0     0.853419     0.000000     0.012204  Biso 1.000000     H
    H   1.0     0.126381     0.321728     0.127701  Biso 1.000000     H
    H   1.0     0.126389     0.821730     0.127698  Biso 1.000000     H
    H   1.0     0.626391     0.321730     0.127699  Biso 1.000000     H
    H   1.0     0.626397     0.821729     0.127699  Biso 1.000000     H
    H   1.0     0.273343     0.012287     0.228224  Biso 1.000000     H
    H   1.0     0.273345     0.512286     0.228224  Biso 1.000000     H
    H   1.0     0.773352     0.012287     0.228224  Biso 1.000000     H
    H   1.0     0.773354     0.512286     0.228224  Biso 1.000000     H
    H   1.0     0.053627     0.469308     0.457517  Biso 1.000000     H
    H   1.0     0.053634     0.969305     0.457519  Biso 1.000000     H
    H   1.0     0.553635     0.469307     0.457518  Biso 1.000000     H
    H   1.0     0.553642     0.969306     0.457517  Biso 1.000000     H
    H   1.0     0.351290     0.260015     0.264834  Biso 1.000000     H
    H   1.0     0.351298     0.760015     0.264836  Biso 1.000000     H
    H   1.0     0.851298     0.260015     0.264835  Biso 1.000000     H
    H   1.0     0.851306     0.760015     0.264835  Biso 1.000000     H
    H   1.0     0.331826     0.404659     0.578853  Biso 1.000000     H
    H   1.0     0.331834     0.904659     0.578851  Biso 1.000000     H
    H   1.0     0.831835     0.404659     0.578852  Biso 1.000000     H
    H   1.0     0.831843     0.904658     0.578850  Biso 1.000000     H
    H   1.0     0.103107     0.247949     0.487752  Biso 1.000000     H
    H   1.0     0.103114     0.747949     0.487751  Biso 1.000000     H
    H   1.0     0.603115     0.247950     0.487753  Biso 1.000000     H
    H   1.0     0.603122     0.747949     0.487752  Biso 1.000000     H
    H   1.0     0.123886     0.071642     0.627667  Biso 1.000000     H
    H   1.0     0.123894     0.571643     0.627666  Biso 1.000000     H
    H   1.0     0.623894     0.071643     0.627666  Biso 1.000000     H
    H   1.0     0.623901     0.571643     0.627666  Biso 1.000000     H
    H   1.0     0.476757     0.262261     0.727985  Biso 1.000000     H
    H   1.0     0.476762     0.762260     0.727986  Biso 1.000000     H
    H   1.0     0.976763     0.262261     0.727985  Biso 1.000000     H
    H   1.0     0.976770     0.762260     0.727986  Biso 1.000000     H
    H   1.0     0.196033     0.219042     0.957240  Biso 1.000000     H
    H   1.0     0.196042     0.719043     0.957242  Biso 1.000000     H
    H   1.0     0.696041     0.219043     0.957240  Biso 1.000000     H
    H   1.0     0.696049     0.719043     0.957241  Biso 1.000000     H
    H   1.0     0.398828     0.009916     0.764851  Biso 1.000000     H
    H   1.0     0.398836     0.509915     0.764850  Biso 1.000000     H
    H   1.0     0.898835     0.009915     0.764851  Biso 1.000000     H
    H   1.0     0.898842     0.509916     0.764851  Biso 1.000000     H
    H   1.0     0.418200     0.154570     0.079643  Biso 1.000000     H
    H   1.0     0.418207     0.654570     0.079641  Biso 1.000000     H
    H   1.0     0.918206     0.154570     0.079644  Biso 1.000000     H
    H   1.0     0.918212     0.654570     0.079638  Biso 1.000000     H
    H   1.0     0.146612    -0.001892     0.987758  Biso 1.000000     H
    H   1.0     0.146620     0.498106     0.987756  Biso 1.000000     H
    H   1.0     0.646621    -0.001891     0.987759  Biso 1.000000     H
    H   1.0     0.646628     0.498106     0.987756  Biso 1.000000     H
    H   1.0     0.373635     0.178273     0.872263  Biso 1.000000     H
    H   1.0     0.373643     0.678273     0.872262  Biso 1.000000     H
    H   1.0     0.873643     0.178274     0.872262  Biso 1.000000     H
    H   1.0     0.873651     0.678272     0.872262  Biso 1.000000     H
    H   1.0     0.226679     0.487712     0.771737  Biso 1.000000     H
    H   1.0     0.226680     0.987711     0.771736  Biso 1.000000     H
    H   1.0     0.726686     0.487712     0.771736  Biso 1.000000     H
    H   1.0     0.726687     0.987711     0.771736  Biso 1.000000     H
    H   1.0     0.446390     0.030696     0.542441  Biso 1.000000     H
    H   1.0     0.446396     0.530692     0.542446  Biso 1.000000     H
    H   1.0     0.946398     0.030695     0.542443  Biso 1.000000     H
    H   1.0     0.946405     0.530695     0.542441  Biso 1.000000     H
    H   1.0     0.148722     0.239986     0.735130  Biso 1.000000     H
    H   1.0     0.148729     0.739986     0.735130  Biso 1.000000     H
    H   1.0     0.648730     0.239986     0.735130  Biso 1.000000     H
    H   1.0     0.648738     0.739986     0.735131  Biso 1.000000     H
    H   1.0     0.168191     0.095344     0.421109  Biso 1.000000     H
    H   1.0     0.168198     0.595343     0.421109  Biso 1.000000     H
    H   1.0     0.668200     0.095344     0.421108  Biso 1.000000     H
    H   1.0     0.668208     0.595343     0.421106  Biso 1.000000     H
    H   1.0     0.396909     0.252049     0.512209  Biso 1.000000     H
    H   1.0     0.396916     0.752049     0.512211  Biso 1.000000     H
    H   1.0     0.896917     0.252050     0.512210  Biso 1.000000     H
    H   1.0     0.896924     0.752048     0.512207  Biso 1.000000     H
    C   1.0     0.417075     0.412028     0.329456  Biso 1.000000     C
    C   1.0     0.417082     0.912025     0.329457  Biso 1.000000     C
    C   1.0     0.917082     0.412026     0.329457  Biso 1.000000     C
    C   1.0     0.917089     0.912027     0.329456  Biso 1.000000     C
    C   1.0     0.010513     0.259885     0.208806  Biso 1.000000     C
    C   1.0     0.010520     0.759885     0.208804  Biso 1.000000     C
    C   1.0     0.510518     0.259886     0.208805  Biso 1.000000     C
    C   1.0     0.510526     0.759885     0.208805  Biso 1.000000     C
    C   1.0     0.357854     0.288609     0.049828  Biso 1.000000     C
    C   1.0     0.357863     0.788609     0.049829  Biso 1.000000     C
    C   1.0     0.857865     0.288611     0.049827  Biso 1.000000     C
    C   1.0     0.857870     0.788608     0.049830  Biso 1.000000     C
    C   1.0     0.065500     0.475854     0.182426  Biso 1.000000     C
    C   1.0     0.065503     0.975853     0.182427  Biso 1.000000     C
    C   1.0     0.565505     0.475853     0.182426  Biso 1.000000     C
    C   1.0     0.565512     0.975853     0.182427  Biso 1.000000     C
    C   1.0     0.051021     0.371809     0.966830  Biso 1.000000     C
    C   1.0     0.051029     0.871808     0.966834  Biso 1.000000     C
    C   1.0     0.551029     0.371809     0.966836  Biso 1.000000     C
    C   1.0     0.551036     0.871809     0.966833  Biso 1.000000     C
    C   1.0     0.362317     0.465323     0.057108  Biso 1.000000     C
    C   1.0     0.362325     0.965322     0.057109  Biso 1.000000     C
    C   1.0     0.862327     0.465322     0.057107  Biso 1.000000     C
    C   1.0     0.862332     0.965323     0.057109  Biso 1.000000     C
    C   1.0     0.167240     0.338016     0.170610  Biso 1.000000     C
    C   1.0     0.167248     0.838015     0.170610  Biso 1.000000     C
    C   1.0     0.667249     0.338016     0.170610  Biso 1.000000     C
    C   1.0     0.667255     0.838016     0.170609  Biso 1.000000     C
    C   1.0     0.260533     0.490104     0.291372  Biso 1.000000     C
    C   1.0     0.260535     0.990103     0.291370  Biso 1.000000     C
    C   1.0     0.760540     0.490103     0.291372  Biso 1.000000     C
    C   1.0     0.760542     0.990103     0.291370  Biso 1.000000     C
    C   1.0     0.107484     0.461530     0.450300  Biso 1.000000     C
    C   1.0     0.107491     0.961533     0.450293  Biso 1.000000     C
    C   1.0     0.607492     0.461532     0.450296  Biso 1.000000     C
    C   1.0     0.607499     0.961531     0.450296  Biso 1.000000     C
    C   1.0     0.315517     0.274205     0.317561  Biso 1.000000     C
    C   1.0     0.315524     0.774205     0.317562  Biso 1.000000     C
    C   1.0     0.815525     0.274205     0.317562  Biso 1.000000     C
    C   1.0     0.815531     0.774205     0.317562  Biso 1.000000     C
    C   1.0     0.300878     0.378230     0.532708  Biso 1.000000     C
    C   1.0     0.300883     0.878229     0.532711  Biso 1.000000     C
    C   1.0     0.800886     0.378230     0.532709  Biso 1.000000     C
    C   1.0     0.800890     0.878229     0.532713  Biso 1.000000     C
    C   1.0     0.112060     0.284562     0.442928  Biso 1.000000     C
    C   1.0     0.112068     0.784562     0.442927  Biso 1.000000     C
    C   1.0     0.612069     0.284561     0.442924  Biso 1.000000     C
    C   1.0     0.612076     0.784561     0.442927  Biso 1.000000     C
    C   1.0     0.082942     0.087974     0.670509  Biso 1.000000     C
    C   1.0     0.082949     0.587974     0.670508  Biso 1.000000     C
    C   1.0     0.582950     0.087975     0.670508  Biso 1.000000     C
    C   1.0     0.582957     0.587974     0.670508  Biso 1.000000     C
    C   1.0     0.489502     0.240115     0.791160  Biso 1.000000     C
    C   1.0     0.489512     0.740114     0.791158  Biso 1.000000     C
    C   1.0     0.989513     0.240116     0.791157  Biso 1.000000     C
    C   1.0     0.989520     0.740115     0.791158  Biso 1.000000     C
    C   1.0     0.142161     0.211393     0.950135  Biso 1.000000     C
    C   1.0     0.142170     0.711394     0.950135  Biso 1.000000     C
    C   1.0     0.642169     0.211393     0.950136  Biso 1.000000     C
    C   1.0     0.642177     0.711394     0.950135  Biso 1.000000     C
    C   1.0     0.434520     0.024148     0.817540  Biso 1.000000     C
    C   1.0     0.434526     0.524148     0.817541  Biso 1.000000     C
    C   1.0     0.934528     0.024147     0.817539  Biso 1.000000     C
    C   1.0     0.934535     0.524147     0.817539  Biso 1.000000     C
    C   1.0     0.448994     0.128193     0.033128  Biso 1.000000     C
    C   1.0     0.449001     0.628192     0.033127  Biso 1.000000     C
    C   1.0     0.949002     0.128193     0.033131  Biso 1.000000     C
    C   1.0     0.949013     0.628192     0.033132  Biso 1.000000     C
    C   1.0     0.137698     0.034677     0.942855  Biso 1.000000     C
    C   1.0     0.137707     0.534677     0.942858  Biso 1.000000     C
    C   1.0     0.637706     0.034676     0.942854  Biso 1.000000     C
    C   1.0     0.637714     0.534677     0.942858  Biso 1.000000     C
    C   1.0     0.332776     0.161985     0.829355  Biso 1.000000     C
    C   1.0     0.332784     0.661984     0.829355  Biso 1.000000     C
    C   1.0     0.832784     0.161984     0.829355  Biso 1.000000     C
    C   1.0     0.832791     0.661985     0.829355  Biso 1.000000     C
    C   1.0     0.239486     0.009898     0.708591  Biso 1.000000     C
    C   1.0     0.239488     0.509897     0.708590  Biso 1.000000     C
    C   1.0     0.739496     0.009898     0.708592  Biso 1.000000     C
    C   1.0     0.739497     0.509897     0.708590  Biso 1.000000     C
    C   1.0     0.392533     0.038469     0.549669  Biso 1.000000     C
    C   1.0     0.392540     0.538473     0.549661  Biso 1.000000     C
    C   1.0     0.892541     0.038472     0.549665  Biso 1.000000     C
    C   1.0     0.892548     0.538469     0.549668  Biso 1.000000     C
    C   1.0     0.184497     0.225796     0.682405  Biso 1.000000     C
    C   1.0     0.184503     0.725795     0.682405  Biso 1.000000     C
    C   1.0     0.684504     0.225795     0.682404  Biso 1.000000     C
    C   1.0     0.684510     0.725794     0.682404  Biso 1.000000     C
    C   1.0     0.199140     0.121772     0.467253  Biso 1.000000     C
    C   1.0     0.199148     0.621771     0.467251  Biso 1.000000     C
    C   1.0     0.699147     0.121772     0.467254  Biso 1.000000     C
    C   1.0     0.699153     0.621772     0.467256  Biso 1.000000     C
    C   1.0     0.387956     0.215438     0.557037  Biso 1.000000     C
    C   1.0     0.387963     0.715437     0.557037  Biso 1.000000     C
    C   1.0     0.887965     0.215437     0.557035  Biso 1.000000     C
    C   1.0     0.887971     0.715440     0.557041  Biso 1.000000     C
    O   1.0     0.403035     0.400143     0.246579  Biso 1.000000     O
    O   1.0     0.403043     0.900142     0.246579  Biso 1.000000     O
    O   1.0     0.903045     0.400143     0.246579  Biso 1.000000     O
    O   1.0     0.903050     0.900142     0.246579  Biso 1.000000     O
    O   1.0     0.472965     0.407310     0.366503  Biso 1.000000     O
    O   1.0     0.472972     0.907310     0.366504  Biso 1.000000     O
    O   1.0     0.972972     0.407311     0.366505  Biso 1.000000     O
    O   1.0     0.972979     0.907309     0.366504  Biso 1.000000     O
    O   1.0     0.008114     0.315280     0.214570  Biso 1.000000     O
    O   1.0     0.008118     0.815279     0.214569  Biso 1.000000     O
    O   1.0     0.508119     0.315280     0.214569  Biso 1.000000     O
    O   1.0     0.508126     0.815279     0.214570  Biso 1.000000     O
    O   1.0    -0.000291     0.229850     0.139256  Biso 1.000000     O
    O   1.0    -0.000285     0.729849     0.139254  Biso 1.000000     O
    O   1.0     0.499716     0.229850     0.139254  Biso 1.000000     O
    O   1.0     0.499723     0.729849     0.139255  Biso 1.000000     O
    O   1.0     0.374314     0.326846     0.110112  Biso 1.000000     O
    O   1.0     0.374325     0.826847     0.110110  Biso 1.000000     O
    O   1.0     0.874327     0.326847     0.110111  Biso 1.000000     O
    O   1.0     0.874331     0.826846     0.110110  Biso 1.000000     O
    O   1.0     0.396292     0.259764     0.000093  Biso 1.000000     O
    O   1.0     0.396301     0.759764     0.000092  Biso 1.000000     O
    O   1.0     0.896302     0.259765     0.000093  Biso 1.000000     O
    O   1.0     0.896307     0.759763     0.000092  Biso 1.000000     O
    O   1.0     0.041718     0.424931     0.191912  Biso 1.000000     O
    O   1.0     0.041723     0.924930     0.191912  Biso 1.000000     O
    O   1.0     0.541722     0.424931     0.191911  Biso 1.000000     O
    O   1.0     0.541730     0.924930     0.191913  Biso 1.000000     O
    O   1.0     0.052977     0.010251     0.120594  Biso 1.000000     O
    O   1.0     0.052983     0.510249     0.120593  Biso 1.000000     O
    O   1.0     0.552985     0.010250     0.120593  Biso 1.000000     O
    O   1.0     0.552989     0.510249     0.120593  Biso 1.000000     O
    O   1.0     0.013516     0.342745     0.020422  Biso 1.000000     O
    O   1.0     0.013520     0.842744     0.020423  Biso 1.000000     O
    O   1.0     0.513519     0.342746     0.020424  Biso 1.000000     O
    O   1.0     0.513528     0.842744     0.020422  Biso 1.000000     O
    O   1.0     0.055865     0.425377     0.964123  Biso 1.000000     O
    O   1.0     0.055870     0.925376     0.964124  Biso 1.000000     O
    O   1.0     0.555871     0.425377     0.964124  Biso 1.000000     O
    O   1.0     0.555877     0.925376     0.964123  Biso 1.000000     O
    O   1.0     0.423076     0.448517     0.062605  Biso 1.000000     O
    O   1.0     0.423084     0.948516     0.062605  Biso 1.000000     O
    O   1.0     0.923086     0.448516     0.062605  Biso 1.000000     O
    O   1.0     0.923091     0.948517     0.062606  Biso 1.000000     O
    O   1.0     0.313239     0.444772     0.097440  Biso 1.000000     O
    O   1.0     0.313248     0.944772     0.097441  Biso 1.000000     O
    O   1.0     0.813249     0.444772     0.097441  Biso 1.000000     O
    O   1.0     0.813255     0.944772     0.097441  Biso 1.000000     O
    O   1.0     0.152970     0.349877     0.253475  Biso 1.000000     O
    O   1.0     0.152976     0.849876     0.253474  Biso 1.000000     O
    O   1.0     0.652978     0.349877     0.253474  Biso 1.000000     O
    O   1.0     0.652983     0.849876     0.253474  Biso 1.000000     O
    O   1.0     0.223220     0.342710     0.133672  Biso 1.000000     O
    O   1.0     0.223228     0.842709     0.133673  Biso 1.000000     O
    O   1.0     0.723230     0.342710     0.133673  Biso 1.000000     O
    O   1.0     0.723235     0.842709     0.133673  Biso 1.000000     O
    O   1.0     0.257962     0.434731     0.285505  Biso 1.000000     O
    O   1.0     0.257970     0.934730     0.285505  Biso 1.000000     O
    O   1.0     0.757971     0.434731     0.285505  Biso 1.000000     O
    O   1.0     0.757977     0.934731     0.285504  Biso 1.000000     O
    O   1.0     0.249783     0.020146     0.360996  Biso 1.000000     O
    O   1.0     0.249789     0.520144     0.360997  Biso 1.000000     O
    O   1.0     0.749791     0.020146     0.360996  Biso 1.000000     O
    O   1.0     0.749797     0.520144     0.360997  Biso 1.000000     O
    O   1.0     0.123828     0.423217     0.389976  Biso 1.000000     O
    O   1.0     0.123835     0.923216     0.389976  Biso 1.000000     O
    O   1.0     0.623836     0.423217     0.389975  Biso 1.000000     O
    O   1.0     0.623843     0.923216     0.389976  Biso 1.000000     O
    O   1.0     0.146002     0.490280     0.499884  Biso 1.000000     O
    O   1.0     0.146009     0.990280     0.499884  Biso 1.000000     O
    O   1.0     0.646010     0.490280     0.499883  Biso 1.000000     O
    O   1.0     0.646017     0.990279     0.499885  Biso 1.000000     O
    O   1.0     0.291631     0.325095     0.308150  Biso 1.000000     O
    O   1.0     0.291638     0.825095     0.308150  Biso 1.000000     O
    O   1.0     0.791639     0.325096     0.308150  Biso 1.000000     O
    O   1.0     0.791645     0.825095     0.308150  Biso 1.000000     O
    O   1.0     0.303002     0.239756     0.379363  Biso 1.000000     O
    O   1.0     0.303008     0.739755     0.379363  Biso 1.000000     O
    O   1.0     0.803009     0.239756     0.379363  Biso 1.000000     O
    O   1.0     0.803015     0.739755     0.379363  Biso 1.000000     O
    O   1.0     0.263243     0.407240     0.479314  Biso 1.000000     O
    O   1.0     0.263251     0.907239     0.479313  Biso 1.000000     O
    O   1.0     0.763252     0.407239     0.479313  Biso 1.000000     O
    O   1.0     0.763259     0.907239     0.479313  Biso 1.000000     O
    O   1.0     0.305731     0.324670     0.535627  Biso 1.000000     O
    O   1.0     0.305737     0.824670     0.535629  Biso 1.000000     O
    O   1.0     0.805738     0.324670     0.535628  Biso 1.000000     O
    O   1.0     0.805744     0.824669     0.535629  Biso 1.000000     O
    O   1.0     0.172822     0.301340     0.437379  Biso 1.000000     O
    O   1.0     0.172829     0.801340     0.437379  Biso 1.000000     O
    O   1.0     0.672830     0.301341     0.437379  Biso 1.000000     O
    O   1.0     0.672837     0.801340     0.437379  Biso 1.000000     O
    O   1.0     0.063016     0.305185     0.402703  Biso 1.000000     O
    O   1.0     0.063024     0.805184     0.402701  Biso 1.000000     O
    O   1.0     0.563025     0.305185     0.402700  Biso 1.000000     O
    O   1.0     0.563032     0.805184     0.402701  Biso 1.000000     O
    O   1.0     0.096980     0.099857     0.753386  Biso 1.000000     O
    O   1.0     0.096988     0.599856     0.753387  Biso 1.000000     O
    O   1.0     0.596988     0.099857     0.753387  Biso 1.000000     O
    O   1.0     0.596995     0.599856     0.753387  Biso 1.000000     O
    O   1.0     0.027052     0.092691     0.633461  Biso 1.000000     O
    O   1.0     0.027060     0.592690     0.633461  Biso 1.000000     O
    O   1.0     0.527060     0.092691     0.633462  Biso 1.000000     O
    O   1.0     0.527067     0.592690     0.633462  Biso 1.000000     O
    O   1.0     0.491902     0.184720     0.785403  Biso 1.000000     O
    O   1.0     0.491909     0.684719     0.785403  Biso 1.000000     O
    O   1.0     0.991909     0.184720     0.785402  Biso 1.000000     O
    O   1.0     0.991916     0.684719     0.785403  Biso 1.000000     O
    O   1.0     0.500308     0.270154     0.860706  Biso 1.000000     O
    O   1.0     0.500316     0.770153     0.860706  Biso 1.000000     O
    O   1.0     0.000000     0.270153     0.860705  Biso 1.000000     O
    O   1.0     0.000000     0.770152     0.860706  Biso 1.000000     O
    O   1.0     0.125699     0.173156     0.889852  Biso 1.000000     O
    O   1.0     0.125709     0.673157     0.889852  Biso 1.000000     O
    O   1.0     0.625708     0.173157     0.889852  Biso 1.000000     O
    O   1.0     0.625717     0.673157     0.889852  Biso 1.000000     O
    O   1.0     0.103725     0.240236     0.999877  Biso 1.000000     O
    O   1.0     0.103732     0.740235     0.999877  Biso 1.000000     O
    O   1.0     0.603732     0.240236     0.999876  Biso 1.000000     O
    O   1.0     0.603740     0.740235     0.999876  Biso 1.000000     O
    O   1.0     0.458301     0.075072     0.808057  Biso 1.000000     O
    O   1.0     0.458308     0.575071     0.808059  Biso 1.000000     O
    O   1.0     0.958307     0.075072     0.808057  Biso 1.000000     O
    O   1.0     0.958315     0.575072     0.808059  Biso 1.000000     O
    O   1.0     0.447040     0.489752     0.879374  Biso 1.000000     O
    O   1.0     0.447045     0.989751     0.879374  Biso 1.000000     O
    O   1.0     0.947048     0.489752     0.879375  Biso 1.000000     O
    O   1.0     0.947052     0.989751     0.879374  Biso 1.000000     O
    O   1.0     0.486505     0.157256     0.979542  Biso 1.000000     O
    O   1.0     0.486513     0.657255     0.979541  Biso 1.000000     O
    O   1.0     0.986512     0.157256     0.979543  Biso 1.000000     O
    O   1.0     0.986520     0.657255     0.979541  Biso 1.000000     O
    O   1.0     0.444154     0.074625     0.035843  Biso 1.000000     O
    O   1.0     0.444160     0.574625     0.035842  Biso 1.000000     O
    O   1.0     0.944161     0.074625     0.035843  Biso 1.000000     O
    O   1.0     0.944168     0.574625     0.035844  Biso 1.000000     O
    O   1.0     0.076940     0.051487     0.937368  Biso 1.000000     O
    O   1.0     0.076949     0.551485     0.937368  Biso 1.000000     O
    O   1.0     0.576949     0.051487     0.937368  Biso 1.000000     O
    O   1.0     0.576956     0.551485     0.937368  Biso 1.000000     O
    O   1.0     0.186776     0.055229     0.902528  Biso 1.000000     O
    O   1.0     0.186785     0.555229     0.902528  Biso 1.000000     O
    O   1.0     0.686785     0.055229     0.902527  Biso 1.000000     O
    O   1.0     0.686792     0.555229     0.902528  Biso 1.000000     O
    O   1.0     0.347047     0.150123     0.746491  Biso 1.000000     O
    O   1.0     0.347054     0.650122     0.746491  Biso 1.000000     O
    O   1.0     0.847055     0.150123     0.746490  Biso 1.000000     O
    O   1.0     0.847062     0.650122     0.746491  Biso 1.000000     O
    O   1.0     0.276795     0.157292     0.866292  Biso 1.000000     O
    O   1.0     0.276804     0.657291     0.866294  Biso 1.000000     O
    O   1.0     0.776804     0.157292     0.866293  Biso 1.000000     O
    O   1.0     0.776812     0.657291     0.866294  Biso 1.000000     O
    O   1.0     0.242055     0.065270     0.714466  Biso 1.000000     O
    O   1.0     0.242062     0.565269     0.714465  Biso 1.000000     O
    O   1.0     0.742063     0.065270     0.714465  Biso 1.000000     O
    O   1.0     0.742070     0.565269     0.714465  Biso 1.000000     O
    O   1.0     0.250232     0.479858     0.638963  Biso 1.000000     O
    O   1.0     0.250238     0.979857     0.638963  Biso 1.000000     O
    O   1.0     0.750240     0.479858     0.638962  Biso 1.000000     O
    O   1.0     0.750246     0.979857     0.638963  Biso 1.000000     O
    O   1.0     0.376190     0.076785     0.609988  Biso 1.000000     O
    O   1.0     0.376198     0.576784     0.609989  Biso 1.000000     O
    O   1.0     0.876198     0.076785     0.609989  Biso 1.000000     O
    O   1.0     0.876205     0.576785     0.609988  Biso 1.000000     O
    O   1.0     0.354014     0.009720     0.500083  Biso 1.000000     O
    O   1.0     0.354020     0.509720     0.500083  Biso 1.000000     O
    O   1.0     0.854022     0.009720     0.500083  Biso 1.000000     O
    O   1.0     0.854029     0.509719     0.500085  Biso 1.000000     O
    O   1.0     0.208385     0.174907     0.691821  Biso 1.000000     O
    O   1.0     0.208391     0.674906     0.691820  Biso 1.000000     O
    O   1.0     0.708393     0.174907     0.691821  Biso 1.000000     O
    O   1.0     0.708399     0.674906     0.691821  Biso 1.000000     O
    O   1.0     0.197014     0.260247     0.620606  Biso 1.000000     O
    O   1.0     0.197020     0.760246     0.620606  Biso 1.000000     O
    O   1.0     0.697022     0.260247     0.620606  Biso 1.000000     O
    O   1.0     0.697028     0.760246     0.620606  Biso 1.000000     O
    O   1.0     0.236773     0.092763     0.520650  Biso 1.000000     O
    O   1.0     0.236780     0.592762     0.520650  Biso 1.000000     O
    O   1.0     0.736781     0.092763     0.520649  Biso 1.000000     O
    O   1.0     0.736788     0.592762     0.520649  Biso 1.000000     O
    O   1.0     0.194284     0.175332     0.464343  Biso 1.000000     O
    O   1.0     0.194290     0.675331     0.464343  Biso 1.000000     O
    O   1.0     0.694291     0.175332     0.464343  Biso 1.000000     O
    O   1.0     0.694298     0.675332     0.464344  Biso 1.000000     O
    O   1.0     0.327194     0.198662     0.562594  Biso 1.000000     O
    O   1.0     0.327201     0.698661     0.562595  Biso 1.000000     O
    O   1.0     0.827202     0.198662     0.562594  Biso 1.000000     O
    O   1.0     0.827209     0.698662     0.562594  Biso 1.000000     O
    O   1.0     0.437001     0.194817     0.597264  Biso 1.000000     O
    O   1.0     0.437008     0.694815     0.597264  Biso 1.000000     O
    O   1.0     0.937009     0.194817     0.597264  Biso 1.000000     O
    O   1.0     0.937016     0.694816     0.597264  Biso 1.000000     O
   Zn   1.0     0.462425     0.377466     0.129311  Biso 1.000000    Zn
   Zn   1.0     0.462439     0.877466     0.129311  Biso 1.000000    Zn
   Zn   1.0     0.962443     0.377467     0.129311  Biso 1.000000    Zn
   Zn   1.0     0.962443     0.877466     0.129311  Biso 1.000000    Zn
   Zn   1.0     0.056168     0.370218     0.309484  Biso 1.000000    Zn
   Zn   1.0     0.056175     0.870217     0.309481  Biso 1.000000    Zn
   Zn   1.0     0.556176     0.370218     0.309480  Biso 1.000000    Zn
   Zn   1.0     0.556182     0.870217     0.309481  Biso 1.000000    Zn
   Zn   1.0     0.211796     0.372543     0.370712  Biso 1.000000    Zn
   Zn   1.0     0.211803     0.872542     0.370711  Biso 1.000000    Zn
   Zn   1.0     0.711804     0.372543     0.370711  Biso 1.000000    Zn
   Zn   1.0     0.711811     0.872542     0.370711  Biso 1.000000    Zn
   Zn   1.0     0.306398     0.379774     0.190706  Biso 1.000000    Zn
   Zn   1.0     0.306408     0.879773     0.190706  Biso 1.000000    Zn
   Zn   1.0     0.806410     0.379774     0.190706  Biso 1.000000    Zn
   Zn   1.0     0.806414     0.879774     0.190706  Biso 1.000000    Zn
   Zn   1.0     0.037587     0.122534     0.870660  Biso 1.000000    Zn
   Zn   1.0     0.037603     0.622534     0.870661  Biso 1.000000    Zn
   Zn   1.0     0.537598     0.122535     0.870661  Biso 1.000000    Zn
   Zn   1.0     0.537609     0.622534     0.870661  Biso 1.000000    Zn
   Zn   1.0     0.443850     0.129784     0.690486  Biso 1.000000    Zn
   Zn   1.0     0.443857     0.629783     0.690487  Biso 1.000000    Zn
   Zn   1.0     0.943857     0.129784     0.690485  Biso 1.000000    Zn
   Zn   1.0     0.943865     0.629783     0.690487  Biso 1.000000    Zn
   Zn   1.0     0.288220     0.127458     0.629261  Biso 1.000000    Zn
   Zn   1.0     0.288227     0.627457     0.629261  Biso 1.000000    Zn
   Zn   1.0     0.788228     0.127458     0.629261  Biso 1.000000    Zn
   Zn   1.0     0.788235     0.627457     0.629260  Biso 1.000000    Zn
   Zn   1.0     0.193615     0.120227     0.809264  Biso 1.000000    Zn
   Zn   1.0     0.193625     0.620226     0.809264  Biso 1.000000    Zn
   Zn   1.0     0.693624     0.120227     0.809264  Biso 1.000000    Zn
   Zn   1.0     0.693633     0.620226     0.809264  Biso 1.000000    Zn
   Zn   1.0     0.000004     0.250000    -0.000005  Biso 1.000000    Zn
   Zn   1.0     0.000009     0.749999    -0.000005  Biso 1.000000    Zn
   Zn   1.0     0.500010     0.250000    -0.000005  Biso 1.000000    Zn
   Zn   1.0     0.500017     0.749999    -0.000005  Biso 1.000000    Zn
   Zn   1.0     0.250006     0.000002     0.499985  Biso 1.000000    Zn
   Zn   1.0     0.250011     0.500001     0.499985  Biso 1.000000    Zn
   Zn   1.0     0.750014     0.000002     0.499985  Biso 1.000000    Zn
   Zn   1.0     0.750019     0.500001     0.499984  Biso 1.000000    Zn
   Zn   1.0     0.000000     0.000000    -0.000003  Biso 1.000000    Zn
   Zn   1.0     0.000005     0.499999    -0.000004  Biso 1.000000    Zn
   Zn   1.0     0.500007     0.000000    -0.000003  Biso 1.000000    Zn
   Zn   1.0     0.500012     0.499999    -0.000003  Biso 1.000000    Zn
   Zn   1.0     0.250008     0.250000     0.499988  Biso 1.000000    Zn
   Zn   1.0     0.250014     0.750000     0.499987  Biso 1.000000    Zn
   Zn   1.0     0.750016     0.250001     0.499987  Biso 1.000000    Zn
   Zn   1.0     0.750022     0.750000     0.499988  Biso 1.000000    Zn
