#======================================================================

# CRYSTAL DATA

#----------------------------------------------------------------------

data_VESTA_phase_1


_pd_phase_name                         MOF
_cell_length_a                         20.23600
_cell_length_b                         23.05300
_cell_length_c                         14.92700
_cell_angle_alpha                      91.15100
_cell_angle_beta                       89.99000
_cell_angle_gamma                      89.95500
_symmetry_space_group_name_H-M         "P 1"
_symmetry_Int_Tables_number            1

loop_
_symmetry_equiv_pos_as_xyz
   "x, y, z"

loop_
   _atom_site_label
   _atom_site_occupancy
   _atom_site_fract_x
   _atom_site_fract_y
   _atom_site_fract_z
   _atom_site_adp_type
   _atom_site_B_iso_or_equiv
   _atom_site_type_symbol
    H   1.0     0.378847     0.428457     0.371243  Biso 1.000000     H
    H   1.0     0.378848     0.928446     0.371246  Biso 1.000000     H
    H   1.0     0.878855     0.428458     0.371244  Biso 1.000000     H
    H   1.0     0.878856     0.928445     0.371246  Biso 1.000000     H
    H   1.0     0.026605     0.236355     0.268820  Biso 1.000000     H
    H   1.0     0.026610     0.736349     0.268817  Biso 1.000000     H
    H   1.0     0.526613     0.236356     0.268819  Biso 1.000000     H
    H   1.0     0.526614     0.736349     0.268819  Biso 1.000000     H
    H   1.0     0.304952     0.280999     0.044499  Biso 1.000000     H
    H   1.0     0.304955     0.780992     0.044499  Biso 1.000000     H
    H   1.0     0.804959     0.281002     0.044495  Biso 1.000000     H
    H   1.0     0.804962     0.780994     0.044497  Biso 1.000000     H
    H   1.0     0.104576     0.490668     0.230970  Biso 1.000000     H
    H   1.0     0.104581     0.990661     0.230968  Biso 1.000000     H
    H   1.0     0.604584     0.490670     0.230970  Biso 1.000000     H
    H   1.0     0.604586     0.990662     0.230971  Biso 1.000000     H
    H   1.0     0.081389     0.344567     0.922440  Biso 1.000000     H
    H   1.0     0.081390     0.844561     0.922437  Biso 1.000000     H
    H   1.0     0.581395     0.344566     0.922436  Biso 1.000000     H
    H   1.0     0.581396     0.844561     0.922437  Biso 1.000000     H
    H   1.0     0.354401     0.501229     0.012519  Biso 1.000000     H
    H   1.0     0.354403     0.000000     0.012524  Biso 1.000000     H
    H   1.0     0.854408     0.501225     0.012512  Biso 1.000000     H
    H   1.0     0.854410     0.000000     0.012521  Biso 1.000000     H
    H   1.0     0.128938     0.321681     0.128743  Biso 1.000000     H
    H   1.0     0.128939     0.821679     0.128742  Biso 1.000000     H
    H   1.0     0.628945     0.321684     0.128739  Biso 1.000000     H
    H   1.0     0.628947     0.821675     0.128742  Biso 1.000000     H
    H   1.0     0.276132     0.013672     0.231126  Biso 1.000000     H
    H   1.0     0.276126     0.513666     0.231123  Biso 1.000000     H
    H   1.0     0.776139     0.013671     0.231125  Biso 1.000000     H
    H   1.0     0.776137     0.513667     0.231123  Biso 1.000000     H
    H   1.0     0.054905     0.469282     0.455434  Biso 1.000000     H
    H   1.0     0.054907     0.969272     0.455440  Biso 1.000000     H
    H   1.0     0.554912     0.469277     0.455442  Biso 1.000000     H
    H   1.0     0.554913     0.969269     0.455444  Biso 1.000000     H
    H   1.0     0.354676     0.259268     0.269018  Biso 1.000000     H
    H   1.0     0.354670     0.759258     0.269010  Biso 1.000000     H
    H   1.0     0.854679     0.259266     0.269012  Biso 1.000000     H
    H   1.0     0.854679     0.759259     0.269011  Biso 1.000000     H
    H   1.0     0.331616     0.405294     0.577290  Biso 1.000000     H
    H   1.0     0.331615     0.905287     0.577293  Biso 1.000000     H
    H   1.0     0.831621     0.405295     0.577288  Biso 1.000000     H
    H   1.0     0.831624     0.905288     0.577290  Biso 1.000000     H
    H   1.0     0.104427     0.249119     0.488007  Biso 1.000000     H
    H   1.0     0.104431     0.749108     0.488002  Biso 1.000000     H
    H   1.0     0.604432     0.249130     0.488022  Biso 1.000000     H
    H   1.0     0.604437     0.749111     0.488007  Biso 1.000000     H
    H   1.0     0.121168     0.071546     0.628748  Biso 1.000000     H
    H   1.0     0.121167     0.571525     0.628753  Biso 1.000000     H
    H   1.0     0.621176     0.071542     0.628751  Biso 1.000000     H
    H   1.0     0.621177     0.571534     0.628752  Biso 1.000000     H
    H   1.0     0.473406     0.263638     0.731174  Biso 1.000000     H
    H   1.0     0.473411     0.763631     0.731174  Biso 1.000000     H
    H   1.0     0.973410     0.263638     0.731178  Biso 1.000000     H
    H   1.0     0.973418     0.763632     0.731174  Biso 1.000000     H
    H   1.0     0.195063     0.218989     0.955511  Biso 1.000000     H
    H   1.0     0.195066     0.718990     0.955497  Biso 1.000000     H
    H   1.0     0.695070     0.218997     0.955497  Biso 1.000000     H
    H   1.0     0.695073     0.718987     0.955503  Biso 1.000000     H
    H   1.0     0.395443     0.009324     0.769025  Biso 1.000000     H
    H   1.0     0.395447     0.509317     0.769022  Biso 1.000000     H
    H   1.0     0.895449     0.009324     0.769025  Biso 1.000000     H
    H   1.0     0.895450     0.509319     0.769026  Biso 1.000000     H
    H   1.0     0.418625     0.155429     0.077550  Biso 1.000000     H
    H   1.0     0.418627     0.655423     0.077550  Biso 1.000000     H
    H   1.0     0.918628     0.155429     0.077546  Biso 1.000000     H
    H   1.0     0.918630     0.655423     0.077545  Biso 1.000000     H
    H   1.0     0.145613    -0.001234     0.987477  Biso 1.000000     H
    H   1.0     0.145616     0.498757     0.987472  Biso 1.000000     H
    H   1.0     0.645621    -0.001237     0.987472  Biso 1.000000     H
    H   1.0     0.645622     0.498755     0.987466  Biso 1.000000     H
    H   1.0     0.371077     0.178315     0.871253  Biso 1.000000     H
    H   1.0     0.371082     0.678302     0.871254  Biso 1.000000     H
    H   1.0     0.871086     0.178312     0.871252  Biso 1.000000     H
    H   1.0     0.871089     0.678305     0.871253  Biso 1.000000     H
    H   1.0     0.223890     0.486322     0.768870  Biso 1.000000     H
    H   1.0     0.223877     0.986316     0.768866  Biso 1.000000     H
    H   1.0     0.723897     0.486322     0.768869  Biso 1.000000     H
    H   1.0     0.723899     0.986317     0.768868  Biso 1.000000     H
    H   1.0     0.445109     0.030720     0.544550  Biso 1.000000     H
    H   1.0     0.445112     0.530710     0.544554  Biso 1.000000     H
    H   1.0     0.945117     0.030716     0.544556  Biso 1.000000     H
    H   1.0     0.945119     0.530705     0.544562  Biso 1.000000     H
    H   1.0     0.145340     0.240727     0.730980  Biso 1.000000     H
    H   1.0     0.145338     0.740718     0.730974  Biso 1.000000     H
    H   1.0     0.645344     0.240724     0.730975  Biso 1.000000     H
    H   1.0     0.645349     0.740719     0.730978  Biso 1.000000     H
    H   1.0     0.168404     0.094702     0.422696  Biso 1.000000     H
    H   1.0     0.168402     0.594696     0.422700  Biso 1.000000     H
    H   1.0     0.668406     0.094703     0.422694  Biso 1.000000     H
    H   1.0     0.668411     0.594696     0.422697  Biso 1.000000     H
    H   1.0     0.395592     0.250863     0.511973  Biso 1.000000     H
    H   1.0     0.395594     0.750861     0.511977  Biso 1.000000     H
    H   1.0     0.895595     0.250877     0.511989  Biso 1.000000     H
    H   1.0     0.895600     0.750862     0.511976  Biso 1.000000     H
    C   1.0     0.419538     0.412265     0.328339  Biso 1.000000     C
    C   1.0     0.419540     0.912253     0.328342  Biso 1.000000     C
    C   1.0     0.919543     0.412253     0.328344  Biso 1.000000     C
    C   1.0     0.919542     0.912231     0.328351  Biso 1.000000     C
    C   1.0     0.012730     0.259279     0.207224  Biso 1.000000     C
    C   1.0     0.012737     0.759273     0.207220  Biso 1.000000     C
    C   1.0     0.512729     0.259280     0.207227  Biso 1.000000     C
    C   1.0     0.512740     0.759273     0.207223  Biso 1.000000     C
    C   1.0     0.358730     0.288276     0.051508  Biso 1.000000     C
    C   1.0     0.358732     0.788267     0.051513  Biso 1.000000     C
    C   1.0     0.858737     0.288268     0.051520  Biso 1.000000     C
    C   1.0     0.858740     0.788266     0.051514  Biso 1.000000     C
    C   1.0     0.068115     0.476097     0.180007  Biso 1.000000     C
    C   1.0     0.068122     0.976089     0.180002  Biso 1.000000     C
    C   1.0     0.568092     0.476112     0.180039  Biso 1.000000     C
    C   1.0     0.568132     0.976088     0.180000  Biso 1.000000     C
    C   1.0     0.050886     0.371512     0.968220  Biso 1.000000     C
    C   1.0     0.050888     0.871506     0.968219  Biso 1.000000     C
    C   1.0     0.550883     0.371511     0.968205  Biso 1.000000     C
    C   1.0     0.550892     0.871506     0.968215  Biso 1.000000     C
    C   1.0     0.363400     0.464869     0.057765  Biso 1.000000     C
    C   1.0     0.363402     0.964860     0.057761  Biso 1.000000     C
    C   1.0     0.863406     0.464866     0.057758  Biso 1.000000     C
    C   1.0     0.863409     0.964861     0.057764  Biso 1.000000     C
    C   1.0     0.169610     0.337811     0.171663  Biso 1.000000     C
    C   1.0     0.169608     0.837824     0.171656  Biso 1.000000     C
    C   1.0     0.669623     0.337788     0.171670  Biso 1.000000     C
    C   1.0     0.669615     0.837822     0.171656  Biso 1.000000     C
    C   1.0     0.262496     0.490730     0.292794  Biso 1.000000     C
    C   1.0     0.262479     0.990724     0.292787  Biso 1.000000     C
    C   1.0     0.762503     0.490730     0.292792  Biso 1.000000     C
    C   1.0     0.762503     0.990723     0.292792  Biso 1.000000     C
    C   1.0     0.108676     0.461857     0.448455  Biso 1.000000     C
    C   1.0     0.108679     0.961853     0.448451  Biso 1.000000     C
    C   1.0     0.608683     0.461855     0.448459  Biso 1.000000     C
    C   1.0     0.608685     0.961848     0.448458  Biso 1.000000     C
    C   1.0     0.318177     0.273874     0.319963  Biso 1.000000     C
    C   1.0     0.318173     0.773865     0.319957  Biso 1.000000     C
    C   1.0     0.818181     0.273872     0.319959  Biso 1.000000     C
    C   1.0     0.818199     0.773874     0.319976  Biso 1.000000     C
    C   1.0     0.300976     0.378396     0.531693  Biso 1.000000     C
    C   1.0     0.300970     0.878389     0.531702  Biso 1.000000     C
    C   1.0     0.800979     0.378397     0.531693  Biso 1.000000     C
    C   1.0     0.800991     0.878390     0.531684  Biso 1.000000     C
    C   1.0     0.113433     0.285322     0.442491  Biso 1.000000     C
    C   1.0     0.113434     0.785317     0.442496  Biso 1.000000     C
    C   1.0     0.613437     0.285334     0.442509  Biso 1.000000     C
    C   1.0     0.613441     0.785317     0.442494  Biso 1.000000     C
    C   1.0     0.080473     0.087721     0.671661  Biso 1.000000     C
    C   1.0     0.080478     0.587721     0.671658  Biso 1.000000     C
    C   1.0     0.580492     0.087760     0.671646  Biso 1.000000     C
    C   1.0     0.580492     0.587746     0.671649  Biso 1.000000     C
    C   1.0     0.487310     0.240716     0.792760  Biso 1.000000     C
    C   1.0     0.487279     0.740709     0.792774  Biso 1.000000     C
    C   1.0     0.987288     0.240715     0.792773  Biso 1.000000     C
    C   1.0     0.987297     0.740709     0.792770  Biso 1.000000     C
    C   1.0     0.141286     0.211718     0.948492  Biso 1.000000     C
    C   1.0     0.141288     0.711721     0.948476  Biso 1.000000     C
    C   1.0     0.641292     0.211737     0.948464  Biso 1.000000     C
    C   1.0     0.641296     0.711711     0.948492  Biso 1.000000     C
    C   1.0     0.431901     0.023896     0.819991  Biso 1.000000     C
    C   1.0     0.431899     0.523892     0.819994  Biso 1.000000     C
    C   1.0     0.931927     0.023888     0.819971  Biso 1.000000     C
    C   1.0     0.931910     0.523891     0.819991  Biso 1.000000     C
    C   1.0     0.449136     0.128484     0.031780  Biso 1.000000     C
    C   1.0     0.449140     0.628478     0.031782  Biso 1.000000     C
    C   1.0     0.949141     0.128484     0.031779  Biso 1.000000     C
    C   1.0     0.949137     0.628478     0.031770  Biso 1.000000     C
    C   1.0     0.136615     0.035125     0.942231  Biso 1.000000     C
    C   1.0     0.136619     0.535122     0.942236  Biso 1.000000     C
    C   1.0     0.636623     0.035127     0.942234  Biso 1.000000     C
    C   1.0     0.636626     0.535122     0.942234  Biso 1.000000     C
    C   1.0     0.330404     0.162185     0.828334  Biso 1.000000     C
    C   1.0     0.330410     0.662170     0.828336  Biso 1.000000     C
    C   1.0     0.830417     0.162169     0.828338  Biso 1.000000     C
    C   1.0     0.830423     0.662150     0.828344  Biso 1.000000     C
    C   1.0     0.237511     0.009266     0.707199  Biso 1.000000     C
    C   1.0     0.237534     0.509259     0.707205  Biso 1.000000     C
    C   1.0     0.737530     0.009266     0.707200  Biso 1.000000     C
    C   1.0     0.737532     0.509259     0.707201  Biso 1.000000     C
    C   1.0     0.391339     0.038156     0.551515  Biso 1.000000     C
    C   1.0     0.391340     0.538122     0.551553  Biso 1.000000     C
    C   1.0     0.891346     0.038143     0.551534  Biso 1.000000     C
    C   1.0     0.891348     0.538139     0.551530  Biso 1.000000     C
    C   1.0     0.181838     0.226120     0.680034  Biso 1.000000     C
    C   1.0     0.181839     0.726113     0.680031  Biso 1.000000     C
    C   1.0     0.681835     0.226115     0.680022  Biso 1.000000     C
    C   1.0     0.681832     0.726106     0.680016  Biso 1.000000     C
    C   1.0     0.199046     0.121599     0.468291  Biso 1.000000     C
    C   1.0     0.199039     0.621593     0.468302  Biso 1.000000     C
    C   1.0     0.699046     0.121601     0.468294  Biso 1.000000     C
    C   1.0     0.699056     0.621594     0.468288  Biso 1.000000     C
    C   1.0     0.386585     0.214660     0.557488  Biso 1.000000     C
    C   1.0     0.386587     0.714661     0.557499  Biso 1.000000     C
    C   1.0     0.886591     0.214671     0.557499  Biso 1.000000     C
    C   1.0     0.886597     0.714650     0.557477  Biso 1.000000     C
    O   1.0     0.405089     0.400322     0.246294  Biso 1.000000     O
    O   1.0     0.405092     0.900317     0.246295  Biso 1.000000     O
    O   1.0     0.905099     0.400327     0.246292  Biso 1.000000     O
    O   1.0     0.905102     0.900325     0.246290  Biso 1.000000     O
    O   1.0     0.475495     0.407615     0.364203  Biso 1.000000     O
    O   1.0     0.475499     0.907608     0.364203  Biso 1.000000     O
    O   1.0     0.975505     0.407619     0.364200  Biso 1.000000     O
    O   1.0     0.975509     0.907618     0.364199  Biso 1.000000     O
    O   1.0     0.010626     0.315000     0.214446  Biso 1.000000     O
    O   1.0     0.010627     0.814994     0.214446  Biso 1.000000     O
    O   1.0     0.510637     0.315001     0.214444  Biso 1.000000     O
    O   1.0     0.510635     0.814994     0.214446  Biso 1.000000     O
    O   1.0     0.000323     0.229758     0.138075  Biso 1.000000     O
    O   1.0     0.000324     0.729752     0.138073  Biso 1.000000     O
    O   1.0     0.500336     0.229758     0.138074  Biso 1.000000     O
    O   1.0     0.500333     0.729752     0.138074  Biso 1.000000     O
    O   1.0     0.375720     0.325445     0.112924  Biso 1.000000     O
    O   1.0     0.375722     0.825440     0.112923  Biso 1.000000     O
    O   1.0     0.875728     0.325449     0.112918  Biso 1.000000     O
    O   1.0     0.875730     0.825441     0.112921  Biso 1.000000     O
    O   1.0     0.396615     0.259941     0.000594  Biso 1.000000     O
    O   1.0     0.396617     0.759937     0.000592  Biso 1.000000     O
    O   1.0     0.896622     0.259946     0.000588  Biso 1.000000     O
    O   1.0     0.896625     0.759938     0.000590  Biso 1.000000     O
    O   1.0     0.043960     0.425228     0.191538  Biso 1.000000     O
    O   1.0     0.043960     0.925222     0.191539  Biso 1.000000     O
    O   1.0     0.543979     0.425222     0.191523  Biso 1.000000     O
    O   1.0     0.543966     0.925223     0.191541  Biso 1.000000     O
    O   1.0     0.055151     0.010104     0.118085  Biso 1.000000     O
    O   1.0     0.055154     0.510098     0.118083  Biso 1.000000     O
    O   1.0     0.555155     0.010105     0.118087  Biso 1.000000     O
    O   1.0     0.555178     0.510089     0.118067  Biso 1.000000     O
    O   1.0     0.013876     0.342779     0.022337  Biso 1.000000     O
    O   1.0     0.013878     0.842774     0.022335  Biso 1.000000     O
    O   1.0     0.513887     0.342780     0.022340  Biso 1.000000     O
    O   1.0     0.513887     0.842773     0.022338  Biso 1.000000     O
    O   1.0     0.055598     0.425356     0.964011  Biso 1.000000     O
    O   1.0     0.055600     0.925350     0.964010  Biso 1.000000     O
    O   1.0     0.555610     0.425355     0.964017  Biso 1.000000     O
    O   1.0     0.555610     0.925350     0.964013  Biso 1.000000     O
    O   1.0     0.423991     0.448044     0.063490  Biso 1.000000     O
    O   1.0     0.423994     0.948040     0.063494  Biso 1.000000     O
    O   1.0     0.923998     0.448044     0.063490  Biso 1.000000     O
    O   1.0     0.924001     0.948039     0.063491  Biso 1.000000     O
    O   1.0     0.314450     0.444489     0.098029  Biso 1.000000     O
    O   1.0     0.314453     0.944485     0.098034  Biso 1.000000     O
    O   1.0     0.814458     0.444490     0.098030  Biso 1.000000     O
    O   1.0     0.814460     0.944484     0.098031  Biso 1.000000     O
    O   1.0     0.155143     0.349696     0.253731  Biso 1.000000     O
    O   1.0     0.155147     0.849683     0.253734  Biso 1.000000     O
    O   1.0     0.655148     0.349706     0.253725  Biso 1.000000     O
    O   1.0     0.655154     0.849683     0.253733  Biso 1.000000     O
    O   1.0     0.225571     0.342427     0.135791  Biso 1.000000     O
    O   1.0     0.225575     0.842413     0.135793  Biso 1.000000     O
    O   1.0     0.725576     0.342438     0.135786  Biso 1.000000     O
    O   1.0     0.725583     0.842413     0.135794  Biso 1.000000     O
    O   1.0     0.260485     0.435013     0.285576  Biso 1.000000     O
    O   1.0     0.260496     0.935006     0.285581  Biso 1.000000     O
    O   1.0     0.760494     0.435013     0.285575  Biso 1.000000     O
    O   1.0     0.760498     0.935007     0.285577  Biso 1.000000     O
    O   1.0     0.250268     0.020254     0.362035  Biso 1.000000     O
    O   1.0     0.250258     0.520249     0.362031  Biso 1.000000     O
    O   1.0     0.750267     0.020255     0.362031  Biso 1.000000     O
    O   1.0     0.750267     0.520250     0.362029  Biso 1.000000     O
    O   1.0     0.125641     0.424608     0.387090  Biso 1.000000     O
    O   1.0     0.125643     0.924599     0.387093  Biso 1.000000     O
    O   1.0     0.625649     0.424610     0.387088  Biso 1.000000     O
    O   1.0     0.625651     0.924601     0.387090  Biso 1.000000     O
    O   1.0     0.146577     0.490087     0.499388  Biso 1.000000     O
    O   1.0     0.146578     0.990079     0.499392  Biso 1.000000     O
    O   1.0     0.646584     0.490087     0.499389  Biso 1.000000     O
    O   1.0     0.646586     0.990081     0.499388  Biso 1.000000     O
    O   1.0     0.294018     0.324779     0.308455  Biso 1.000000     O
    O   1.0     0.294021     0.824773     0.308456  Biso 1.000000     O
    O   1.0     0.794026     0.324779     0.308455  Biso 1.000000     O
    O   1.0     0.794021     0.824769     0.308447  Biso 1.000000     O
    O   1.0     0.305168     0.239872     0.381846  Biso 1.000000     O
    O   1.0     0.305170     0.739866     0.381847  Biso 1.000000     O
    O   1.0     0.805174     0.239872     0.381844  Biso 1.000000     O
    O   1.0     0.805168     0.739861     0.381837  Biso 1.000000     O
    O   1.0     0.263941     0.407184     0.477629  Biso 1.000000     O
    O   1.0     0.263946     0.907179     0.477628  Biso 1.000000     O
    O   1.0     0.763949     0.407185     0.477624  Biso 1.000000     O
    O   1.0     0.763948     0.907178     0.477631  Biso 1.000000     O
    O   1.0     0.305615     0.324545     0.536007  Biso 1.000000     O
    O   1.0     0.305621     0.824539     0.536005  Biso 1.000000     O
    O   1.0     0.805623     0.324547     0.536004  Biso 1.000000     O
    O   1.0     0.805622     0.824539     0.536010  Biso 1.000000     O
    O   1.0     0.174020     0.302054     0.436652  Biso 1.000000     O
    O   1.0     0.174022     0.802046     0.436647  Biso 1.000000     O
    O   1.0     0.674027     0.302053     0.436646  Biso 1.000000     O
    O   1.0     0.674028     0.802048     0.436649  Biso 1.000000     O
    O   1.0     0.064496     0.305636     0.402065  Biso 1.000000     O
    O   1.0     0.064498     0.805625     0.402059  Biso 1.000000     O
    O   1.0     0.564503     0.305637     0.402061  Biso 1.000000     O
    O   1.0     0.564505     0.805627     0.402062  Biso 1.000000     O
    O   1.0     0.094927     0.099678     0.753700  Biso 1.000000     O
    O   1.0     0.094929     0.599666     0.753702  Biso 1.000000     O
    O   1.0     0.594932     0.099661     0.753707  Biso 1.000000     O
    O   1.0     0.594935     0.599658     0.753706  Biso 1.000000     O
    O   1.0     0.024519     0.092388     0.635793  Biso 1.000000     O
    O   1.0     0.024520     0.592374     0.635796  Biso 1.000000     O
    O   1.0     0.524523     0.092367     0.635801  Biso 1.000000     O
    O   1.0     0.524526     0.592365     0.635799  Biso 1.000000     O
    O   1.0     0.489378     0.184993     0.785557  Biso 1.000000     O
    O   1.0     0.489393     0.684988     0.785550  Biso 1.000000     O
    O   1.0     0.989396     0.184995     0.785552  Biso 1.000000     O
    O   1.0     0.989397     0.684988     0.785552  Biso 1.000000     O
    O   1.0     0.499678     0.270237     0.861922  Biso 1.000000     O
    O   1.0     0.499697     0.770232     0.861917  Biso 1.000000     O
    O   1.0     0.999699     0.270238     0.861920  Biso 1.000000     O
    O   1.0     0.999700     0.770232     0.861918  Biso 1.000000     O
    O   1.0     0.124295     0.174549     0.887076  Biso 1.000000     O
    O   1.0     0.124298     0.674540     0.887078  Biso 1.000000     O
    O   1.0     0.624304     0.174543     0.887084  Biso 1.000000     O
    O   1.0     0.624305     0.674543     0.887074  Biso 1.000000     O
    O   1.0     0.103401     0.240052     0.999407  Biso 1.000000     O
    O   1.0     0.103404     0.740044     0.999408  Biso 1.000000     O
    O   1.0     0.603409     0.240046     0.999415  Biso 1.000000     O
    O   1.0     0.603411     0.740048     0.999404  Biso 1.000000     O
    O   1.0     0.456055     0.074766     0.808461  Biso 1.000000     O
    O   1.0     0.456060     0.574760     0.808459  Biso 1.000000     O
    O   1.0     0.956055     0.074771     0.808471  Biso 1.000000     O
    O   1.0     0.956065     0.574761     0.808462  Biso 1.000000     O
    O   1.0     0.444868     0.489888     0.881910  Biso 1.000000     O
    O   1.0     0.444868     0.989884     0.881913  Biso 1.000000     O
    O   1.0     0.944872     0.489890     0.881913  Biso 1.000000     O
    O   1.0     0.944865     0.989890     0.881923  Biso 1.000000     O
    O   1.0     0.486137     0.157216     0.977652  Biso 1.000000     O
    O   1.0     0.486138     0.657210     0.977651  Biso 1.000000     O
    O   1.0     0.986144     0.157216     0.977653  Biso 1.000000     O
    O   1.0     0.986149     0.657210     0.977655  Biso 1.000000     O
    O   1.0     0.444414     0.074640     0.035979  Biso 1.000000     O
    O   1.0     0.444416     0.574634     0.035978  Biso 1.000000     O
    O   1.0     0.944422     0.074640     0.035980  Biso 1.000000     O
    O   1.0     0.944428     0.574634     0.035984  Biso 1.000000     O
    O   1.0     0.076024     0.051951     0.936505  Biso 1.000000     O
    O   1.0     0.076027     0.551942     0.936501  Biso 1.000000     O
    O   1.0     0.576032     0.051949     0.936502  Biso 1.000000     O
    O   1.0     0.576033     0.551941     0.936499  Biso 1.000000     O
    O   1.0     0.185565     0.055506     0.901970  Biso 1.000000     O
    O   1.0     0.185568     0.555497     0.901965  Biso 1.000000     O
    O   1.0     0.685572     0.055504     0.901965  Biso 1.000000     O
    O   1.0     0.685576     0.555496     0.901965  Biso 1.000000     O
    O   1.0     0.344872     0.150297     0.746267  Biso 1.000000     O
    O   1.0     0.344874     0.650293     0.746265  Biso 1.000000     O
    O   1.0     0.844877     0.150303     0.746262  Biso 1.000000     O
    O   1.0     0.844879     0.650302     0.746261  Biso 1.000000     O
    O   1.0     0.274445     0.157568     0.864209  Biso 1.000000     O
    O   1.0     0.274447     0.657564     0.864207  Biso 1.000000     O
    O   1.0     0.774451     0.157574     0.864203  Biso 1.000000     O
    O   1.0     0.774452     0.657574     0.864202  Biso 1.000000     O
    O   1.0     0.239529     0.064982     0.714421  Biso 1.000000     O
    O   1.0     0.239530     0.564976     0.714419  Biso 1.000000     O
    O   1.0     0.739538     0.064982     0.714418  Biso 1.000000     O
    O   1.0     0.739540     0.564976     0.714419  Biso 1.000000     O
    O   1.0     0.249753     0.479741     0.637960  Biso 1.000000     O
    O   1.0     0.249758     0.979735     0.637963  Biso 1.000000     O
    O   1.0     0.749765     0.479741     0.637961  Biso 1.000000     O
    O   1.0     0.749766     0.979735     0.637960  Biso 1.000000     O
    O   1.0     0.374372     0.075379     0.612917  Biso 1.000000     O
    O   1.0     0.374376     0.575385     0.612901  Biso 1.000000     O
    O   1.0     0.874380     0.075387     0.612907  Biso 1.000000     O
    O   1.0     0.874382     0.575377     0.612911  Biso 1.000000     O
    O   1.0     0.353436     0.009901     0.500617  Biso 1.000000     O
    O   1.0     0.353440     0.509907     0.500599  Biso 1.000000     O
    O   1.0     0.853444     0.009907     0.500609  Biso 1.000000     O
    O   1.0     0.853446     0.509899     0.500612  Biso 1.000000     O
    O   1.0     0.205999     0.175217     0.691545  Biso 1.000000     O
    O   1.0     0.206001     0.675209     0.691544  Biso 1.000000     O
    O   1.0     0.706011     0.175218     0.691546  Biso 1.000000     O
    O   1.0     0.706015     0.675213     0.691551  Biso 1.000000     O
    O   1.0     0.194848     0.260122     0.618150  Biso 1.000000     O
    O   1.0     0.194848     0.760115     0.618149  Biso 1.000000     O
    O   1.0     0.694857     0.260122     0.618150  Biso 1.000000     O
    O   1.0     0.694865     0.760119     0.618156  Biso 1.000000     O
    O   1.0     0.236072     0.092811     0.522366  Biso 1.000000     O
    O   1.0     0.236078     0.592805     0.522360  Biso 1.000000     O
    O   1.0     0.736081     0.092812     0.522356  Biso 1.000000     O
    O   1.0     0.736081     0.592805     0.522362  Biso 1.000000     O
    O   1.0     0.194398     0.175450     0.463989  Biso 1.000000     O
    O   1.0     0.194404     0.675443     0.463982  Biso 1.000000     O
    O   1.0     0.694407     0.175451     0.463980  Biso 1.000000     O
    O   1.0     0.694406     0.675444     0.463987  Biso 1.000000     O
    O   1.0     0.325994     0.197941     0.563348  Biso 1.000000     O
    O   1.0     0.325998     0.697934     0.563344  Biso 1.000000     O
    O   1.0     0.826003     0.197942     0.563345  Biso 1.000000     O
    O   1.0     0.826004     0.697939     0.563352  Biso 1.000000     O
    O   1.0     0.435518     0.194357     0.597936  Biso 1.000000     O
    O   1.0     0.435521     0.694350     0.597932  Biso 1.000000     O
    O   1.0     0.935526     0.194361     0.597937  Biso 1.000000     O
    O   1.0     0.935526     0.694357     0.597944  Biso 1.000000     O
   Zn   1.0     0.464026     0.377447     0.131734  Biso 1.000000    Zn
   Zn   1.0     0.464029     0.877441     0.131733  Biso 1.000000    Zn
   Zn   1.0     0.964035     0.377448     0.131733  Biso 1.000000    Zn
   Zn   1.0     0.964037     0.877441     0.131732  Biso 1.000000    Zn
   Zn   1.0     0.058795     0.370344     0.308793  Biso 1.000000    Zn
   Zn   1.0     0.058798     0.870338     0.308793  Biso 1.000000    Zn
   Zn   1.0     0.558801     0.370346     0.308793  Biso 1.000000    Zn
   Zn   1.0     0.558806     0.870338     0.308793  Biso 1.000000    Zn
   Zn   1.0     0.214019     0.372562     0.368343  Biso 1.000000    Zn
   Zn   1.0     0.214022     0.872557     0.368344  Biso 1.000000    Zn
   Zn   1.0     0.714027     0.372562     0.368338  Biso 1.000000    Zn
   Zn   1.0     0.714029     0.872557     0.368343  Biso 1.000000    Zn
   Zn   1.0     0.308791     0.379681     0.191205  Biso 1.000000    Zn
   Zn   1.0     0.308793     0.879674     0.191204  Biso 1.000000    Zn
   Zn   1.0     0.808801     0.379681     0.191206  Biso 1.000000    Zn
   Zn   1.0     0.808802     0.879675     0.191205  Biso 1.000000    Zn
   Zn   1.0     0.035989     0.122547     0.868260  Biso 1.000000    Zn
   Zn   1.0     0.035992     0.622541     0.868260  Biso 1.000000    Zn
   Zn   1.0     0.535996     0.122547     0.868260  Biso 1.000000    Zn
   Zn   1.0     0.536000     0.622541     0.868260  Biso 1.000000    Zn
   Zn   1.0     0.441219     0.129648     0.691206  Biso 1.000000    Zn
   Zn   1.0     0.441222     0.629644     0.691208  Biso 1.000000    Zn
   Zn   1.0     0.941225     0.129650     0.691209  Biso 1.000000    Zn
   Zn   1.0     0.941227     0.629643     0.691209  Biso 1.000000    Zn
   Zn   1.0     0.285996     0.127431     0.631651  Biso 1.000000    Zn
   Zn   1.0     0.285997     0.627426     0.631647  Biso 1.000000    Zn
   Zn   1.0     0.786003     0.127432     0.631641  Biso 1.000000    Zn
   Zn   1.0     0.786006     0.627426     0.631644  Biso 1.000000    Zn
   Zn   1.0     0.191225     0.120314     0.808796  Biso 1.000000    Zn
   Zn   1.0     0.191228     0.620308     0.808795  Biso 1.000000    Zn
   Zn   1.0     0.691233     0.120314     0.808793  Biso 1.000000    Zn
   Zn   1.0     0.691235     0.620307     0.808795  Biso 1.000000    Zn
   Zn   1.0     0.000001     0.249997    -0.000002  Biso 1.000000    Zn
   Zn   1.0     0.000010     0.749992     0.999999  Biso 1.000000    Zn
   Zn   1.0     0.500009     0.249998    -0.000001  Biso 1.000000    Zn
   Zn   1.0     0.500017     0.749992     0.999999  Biso 1.000000    Zn
   Zn   1.0     0.250005     0.000001     0.500000  Biso 1.000000    Zn
   Zn   1.0     0.250009     0.499994     0.499998  Biso 1.000000    Zn
   Zn   1.0     0.750013     0.000001     0.499998  Biso 1.000000    Zn
   Zn   1.0     0.750015     0.499995     0.499997  Biso 1.000000    Zn
   Zn   1.0     0.000000     0.000001    -0.000001  Biso 1.000000    Zn
   Zn   1.0     0.000002     0.499994    -0.000001  Biso 1.000000    Zn
   Zn   1.0     0.500007     0.000000    -0.000001  Biso 1.000000    Zn
   Zn   1.0     0.500009     0.499994    -0.000002  Biso 1.000000    Zn
   Zn   1.0     0.250008     0.249997     0.499999  Biso 1.000000    Zn
   Zn   1.0     0.250010     0.749992     0.500000  Biso 1.000000    Zn
   Zn   1.0     0.750015     0.249998     0.499998  Biso 1.000000    Zn
   Zn   1.0     0.750017     0.749991     0.499998  Biso 1.000000    Zn
