#======================================================================

# CRYSTAL DATA

#----------------------------------------------------------------------

data_VESTA_phase_1


_pd_phase_name                         MOF
_cell_length_a                         14.92600
_cell_length_b                         19.99400
_cell_length_c                         20.52500
_cell_angle_alpha                      89.99800
_cell_angle_beta                       94.36400
_cell_angle_gamma                      89.99300
_symmetry_space_group_name_H-M         "P 1"
_symmetry_Int_Tables_number            1

loop_
_symmetry_equiv_pos_as_xyz
   "x, y, z"

loop_
   _atom_site_label
   _atom_site_occupancy
   _atom_site_fract_x
   _atom_site_fract_y
   _atom_site_fract_z
   _atom_site_adp_type
   _atom_site_B_iso_or_equiv
   _atom_site_type_symbol
    H   1.0     0.395043     0.528708     0.337416  Biso 1.000000     H
    H   1.0     0.325069     0.414628     0.002089  Biso 1.000000     H
    H   1.0     0.094235     0.473020     0.339506  Biso 1.000000     H
    H   1.0     0.181181     0.581516     0.014075  Biso 1.000000     H
    H   1.0     0.350532     0.567550     0.245175  Biso 1.000000     H
    H   1.0     0.360888     0.591411     0.127737  Biso 1.000000     H
    H   1.0     0.378020     0.380054     0.088634  Biso 1.000000     H
    H   1.0     0.362981     0.356426     0.205623  Biso 1.000000     H
    H   1.0     0.409973     0.562382     0.558032  Biso 1.000000     H
    H   1.0     0.407784     0.576513     0.437480  Biso 1.000000     H
    H   1.0     0.318034     0.371647     0.417593  Biso 1.000000     H
    H   1.0     0.323288     0.365995     0.539196  Biso 1.000000     H
    H   1.0     0.442664     0.542223     0.790988  Biso 1.000000     H
    H   1.0     0.430732     0.552168     0.911331  Biso 1.000000     H
    H   1.0     0.291651     0.362396     0.902522  Biso 1.000000     H
    H   1.0     0.306459     0.361912     0.782368  Biso 1.000000     H
    H   1.0     0.127896     0.645016     0.209520  Biso 1.000000     H
    H   1.0     0.114436     0.620441     0.090633  Biso 1.000000     H
    H   1.0     0.123675     0.409377     0.133302  Biso 1.000000     H
    H   1.0     0.132170     0.433976     0.251592  Biso 1.000000     H
    H   1.0     0.172444     0.636818     0.547451  Biso 1.000000     H
    H   1.0     0.171441     0.631110     0.425981  Biso 1.000000     H
    H   1.0     0.087275     0.425178     0.438775  Biso 1.000000     H
    H   1.0     0.090604     0.439497     0.559257  Biso 1.000000     H
    H   1.0     0.222008     0.632193     0.798573  Biso 1.000000     H
    H   1.0     0.226253     0.631953     0.920199  Biso 1.000000     H
    H   1.0     0.075210     0.447397     0.907163  Biso 1.000000     H
    H   1.0     0.076291     0.456090     0.785912  Biso 1.000000     H
    H   1.0     0.250996     0.711689     0.675557  Biso 1.000000     H
    H   1.0     0.320993     0.832615     0.674331  Biso 1.000000     H
    H   1.0     0.261873     0.287732     0.669922  Biso 1.000000     H
    H   1.0     0.190494     0.167246     0.668550  Biso 1.000000     H
    H   1.0     0.105002     0.028705     0.662592  Biso 1.000000     H
    H   1.0     0.174983     0.914627     0.997934  Biso 1.000000     H
    H   1.0     0.405791     0.973023     0.660500  Biso 1.000000     H
    H   1.0     0.318808     0.081519     0.985923  Biso 1.000000     H
    H   1.0     0.149487     0.067540     0.754832  Biso 1.000000     H
    H   1.0     0.139135     0.091409     0.872268  Biso 1.000000     H
    H   1.0     0.122028     0.880058     0.911395  Biso 1.000000     H
    H   1.0     0.137064     0.856423     0.794409  Biso 1.000000     H
    H   1.0     0.090055     0.062360     0.441973  Biso 1.000000     H
    H   1.0     0.092268     0.076503     0.562524  Biso 1.000000     H
    H   1.0     0.181986     0.871614     0.582434  Biso 1.000000     H
    H   1.0     0.176710     0.865952     0.460831  Biso 1.000000     H
    H   1.0     0.057357     0.042222     0.209023  Biso 1.000000     H
    H   1.0     0.069311     0.052174     0.088682  Biso 1.000000     H
    H   1.0     0.208379     0.862371     0.097501  Biso 1.000000     H
    H   1.0     0.193546     0.861879     0.217652  Biso 1.000000     H
    H   1.0     0.372113     0.145021     0.790482  Biso 1.000000     H
    H   1.0     0.385564     0.120440     0.909371  Biso 1.000000     H
    H   1.0     0.376364     0.909382     0.866709  Biso 1.000000     H
    H   1.0     0.367879     0.933985     0.748419  Biso 1.000000     H
    H   1.0     0.327619     0.136852     0.452553  Biso 1.000000     H
    H   1.0     0.328614     0.131139     0.574022  Biso 1.000000     H
    H   1.0     0.412736     0.925182     0.561233  Biso 1.000000     H
    H   1.0     0.409415     0.939507     0.440751  Biso 1.000000     H
    H   1.0     0.278022     0.132224     0.201421  Biso 1.000000     H
    H   1.0     0.273752     0.131967     0.079795  Biso 1.000000     H
    H   1.0     0.424807     0.947388     0.092852  Biso 1.000000     H
    H   1.0     0.423749     0.956097     0.214102  Biso 1.000000     H
    H   1.0     0.249034     0.211652     0.324448  Biso 1.000000     H
    H   1.0     0.179040     0.332591     0.325673  Biso 1.000000     H
    H   1.0     0.238158     0.787769     0.330089  Biso 1.000000     H
    H   1.0     0.309535     0.667268     0.331457  Biso 1.000000     H
    H   1.0     0.605000     0.471299     0.662594  Biso 1.000000     H
    H   1.0     0.674975     0.585380     0.997921  Biso 1.000000     H
    H   1.0     0.905809     0.526987     0.660504  Biso 1.000000     H
    H   1.0     0.818862     0.418491     0.985935  Biso 1.000000     H
    H   1.0     0.649511     0.432457     0.754835  Biso 1.000000     H
    H   1.0     0.639156     0.408596     0.872273  Biso 1.000000     H
    H   1.0     0.622023     0.619953     0.911376  Biso 1.000000     H
    H   1.0     0.637063     0.643580     0.794387  Biso 1.000000     H
    H   1.0     0.590070     0.437625     0.441978  Biso 1.000000     H
    H   1.0     0.592259     0.423493     0.562530  Biso 1.000000     H
    H   1.0     0.682010     0.628359     0.582417  Biso 1.000000     H
    H   1.0     0.676755     0.634012     0.460814  Biso 1.000000     H
    H   1.0     0.557379     0.457785     0.209022  Biso 1.000000     H
    H   1.0     0.569312     0.447840     0.088680  Biso 1.000000     H
    H   1.0     0.708393     0.637611     0.097488  Biso 1.000000     H
    H   1.0     0.693584     0.638095     0.217642  Biso 1.000000     H
    H   1.0     0.872148     0.354991     0.790490  Biso 1.000000     H
    H   1.0     0.885608     0.379566     0.909378  Biso 1.000000     H
    H   1.0     0.876369     0.590629     0.866708  Biso 1.000000     H
    H   1.0     0.867873     0.566031     0.748418  Biso 1.000000     H
    H   1.0     0.827599     0.363189     0.452560  Biso 1.000000     H
    H   1.0     0.828603     0.368897     0.574029  Biso 1.000000     H
    H   1.0     0.912769     0.574829     0.561235  Biso 1.000000     H
    H   1.0     0.909440     0.560510     0.440753  Biso 1.000000     H
    H   1.0     0.778035     0.367815     0.201437  Biso 1.000000     H
    H   1.0     0.773791     0.368054     0.079812  Biso 1.000000     H
    H   1.0     0.924833     0.552610     0.092847  Biso 1.000000     H
    H   1.0     0.923752     0.543917     0.214098  Biso 1.000000     H
    H   1.0     0.749047     0.288318     0.324453  Biso 1.000000     H
    H   1.0     0.679050     0.167393     0.325679  Biso 1.000000     H
    H   1.0     0.738170     0.712275     0.330088  Biso 1.000000     H
    H   1.0     0.809549     0.832761     0.331461  Biso 1.000000     H
    H   1.0     0.895042     0.971303     0.337419  Biso 1.000000     H
    H   1.0     0.825060     0.085380     0.002077  Biso 1.000000     H
    H   1.0     0.594252     0.026984     0.339510  Biso 1.000000     H
    H   1.0     0.681235     0.918488     0.014088  Biso 1.000000     H
    H   1.0     0.850557     0.932467     0.245178  Biso 1.000000     H
    H   1.0     0.860908     0.908599     0.127743  Biso 1.000000     H
    H   1.0     0.878016     0.119949     0.088615  Biso 1.000000     H
    H   1.0     0.862980     0.143584     0.205602  Biso 1.000000     H
    H   1.0     0.909989     0.937647     0.558037  Biso 1.000000     H
    H   1.0     0.907776     0.923504     0.437487  Biso 1.000000     H
    H   1.0     0.818057     0.128393     0.417577  Biso 1.000000     H
    H   1.0     0.823332     0.134055     0.539179  Biso 1.000000     H
    H   1.0     0.942687     0.957785     0.790988  Biso 1.000000     H
    H   1.0     0.930733     0.947833     0.911328  Biso 1.000000     H
    H   1.0     0.791665     0.137636     0.902509  Biso 1.000000     H
    H   1.0     0.806497     0.138128     0.782359  Biso 1.000000     H
    H   1.0     0.627930     0.854985     0.209529  Biso 1.000000     H
    H   1.0     0.614480     0.879566     0.090640  Biso 1.000000     H
    H   1.0     0.623680     0.090625     0.133301  Biso 1.000000     H
    H   1.0     0.632165     0.066021     0.251592  Biso 1.000000     H
    H   1.0     0.672426     0.863155     0.547458  Biso 1.000000     H
    H   1.0     0.671431     0.868869     0.425989  Biso 1.000000     H
    H   1.0     0.587307     0.074825     0.438778  Biso 1.000000     H
    H   1.0     0.590627     0.060500     0.559260  Biso 1.000000     H
    H   1.0     0.722021     0.867783     0.798590  Biso 1.000000     H
    H   1.0     0.726291     0.868039     0.920215  Biso 1.000000     H
    H   1.0     0.575237     0.052619     0.907159  Biso 1.000000     H
    H   1.0     0.576295     0.043910     0.785909  Biso 1.000000     H
    H   1.0     0.751010     0.788355     0.675563  Biso 1.000000     H
    H   1.0     0.821003     0.667416     0.674338  Biso 1.000000     H
    H   1.0     0.761885     0.212238     0.669922  Biso 1.000000     H
    H   1.0     0.690508     0.332740     0.668553  Biso 1.000000     H
    C   1.0     0.340837     0.439021     0.301709  Biso 1.000000     C
    C   1.0     0.373369     0.507387     0.029794  Biso 1.000000     C
    C   1.0     0.355074     0.459721     0.232957  Biso 1.000000     C
    C   1.0     0.355350     0.526169     0.211144  Biso 1.000000     C
    C   1.0     0.360810     0.539950     0.145108  Biso 1.000000     C
    C   1.0     0.366613     0.488115     0.099564  Biso 1.000000     C
    C   1.0     0.368852     0.421626     0.121934  Biso 1.000000     C
    C   1.0     0.362502     0.407713     0.187741  Biso 1.000000     C
    C   1.0     0.388736     0.521581     0.525313  Biso 1.000000     C
    C   1.0     0.387701     0.529248     0.458326  Biso 1.000000     C
    C   1.0     0.361931     0.475169     0.417146  Biso 1.000000     C
    C   1.0     0.338038     0.414972     0.446967  Biso 1.000000     C
    C   1.0     0.340977     0.412020     0.514692  Biso 1.000000     C
    C   1.0     0.409204     0.503674     0.817775  Biso 1.000000     C
    C   1.0     0.403468     0.509013     0.884723  Biso 1.000000     C
    C   1.0     0.361056     0.457572     0.917223  Biso 1.000000     C
    C   1.0     0.326060     0.403364     0.879751  Biso 1.000000     C
    C   1.0     0.334024     0.402701     0.812915  Biso 1.000000     C
    C   1.0     0.147047     0.562799     0.308568  Biso 1.000000     C
    C   1.0     0.118073     0.493137     0.033501  Biso 1.000000     C
    C   1.0     0.131991     0.541834     0.238362  Biso 1.000000     C
    C   1.0     0.126835     0.593596     0.191966  Biso 1.000000     C
    C   1.0     0.121486     0.579257     0.125544  Biso 1.000000     C
    C   1.0     0.122242     0.512552     0.103962  Biso 1.000000     C
    C   1.0     0.124696     0.460971     0.150326  Biso 1.000000     C
    C   1.0     0.129327     0.475231     0.216882  Biso 1.000000     C
    C   1.0     0.154328     0.590607     0.521448  Biso 1.000000     C
    C   1.0     0.153865     0.587618     0.453856  Biso 1.000000     C
    C   1.0     0.130037     0.526999     0.422146  Biso 1.000000     C
    C   1.0     0.107396     0.472693     0.461286  Biso 1.000000     C
    C   1.0     0.109465     0.480487     0.528258  Biso 1.000000     C
    C   1.0     0.189788     0.592362     0.824567  Biso 1.000000     C
    C   1.0     0.191415     0.592121     0.892216  Biso 1.000000     C
    C   1.0     0.149352     0.539732     0.924011  Biso 1.000000     C
    C   1.0     0.107901     0.489140     0.885091  Biso 1.000000     C
    C   1.0     0.109114     0.493835     0.817729  Biso 1.000000     C
    C   1.0     0.374726     0.598917     0.676032  Biso 1.000000     C
    C   1.0     0.996729     0.156473     0.668813  Biso 1.000000     C
    C   1.0     0.387396     0.672277     0.675885  Biso 1.000000     C
    C   1.0     0.322636     0.722184     0.675484  Biso 1.000000     C
    C   1.0     0.360386     0.786885     0.674550  Biso 1.000000     C
    C   1.0     0.453390     0.786056     0.674123  Biso 1.000000     C
    C   1.0     0.139874     0.401106     0.673718  Biso 1.000000     C
    C   1.0     0.514831     0.844237     0.672956  Biso 1.000000     C
    C   1.0     0.126152     0.327840     0.672334  Biso 1.000000     C
    C   1.0     0.190214     0.277614     0.670696  Biso 1.000000     C
    C   1.0     0.151624     0.213136     0.669617  Biso 1.000000     C
    C   1.0     0.058660     0.214452     0.670118  Biso 1.000000     C
    C   1.0     0.159197     0.939008     0.698313  Biso 1.000000     C
    C   1.0     0.126663     0.007389     0.970222  Biso 1.000000     C
    C   1.0     0.144961     0.959716     0.767063  Biso 1.000000     C
    C   1.0     0.144675     0.026161     0.788868  Biso 1.000000     C
    C   1.0     0.139216     0.039946     0.854903  Biso 1.000000     C
    C   1.0     0.133427     0.988117     0.900453  Biso 1.000000     C
    C   1.0     0.131191     0.921628     0.878091  Biso 1.000000     C
    C   1.0     0.137540     0.907710     0.812286  Biso 1.000000     C
    C   1.0     0.111291     0.021556     0.474698  Biso 1.000000     C
    C   1.0     0.112339     0.029230     0.541684  Biso 1.000000     C
    C   1.0     0.138109     0.975150     0.582870  Biso 1.000000     C
    C   1.0     0.161986     0.914942     0.553056  Biso 1.000000     C
    C   1.0     0.159036     0.911985     0.485331  Biso 1.000000     C
    C   1.0     0.090817     0.003667     0.182239  Biso 1.000000     C
    C   1.0     0.096566     0.009011     0.115292  Biso 1.000000     C
    C   1.0     0.138984     0.957565     0.082795  Biso 1.000000     C
    C   1.0     0.173969     0.903345     0.120269  Biso 1.000000     C
    C   1.0     0.165992     0.902678     0.187104  Biso 1.000000     C
    C   1.0     0.352987     0.062813     0.691438  Biso 1.000000     C
    C   1.0     0.381947     0.993140     0.966507  Biso 1.000000     C
    C   1.0     0.368034     0.041841     0.761644  Biso 1.000000     C
    C   1.0     0.373178     0.093600     0.808039  Biso 1.000000     C
    C   1.0     0.378522     0.079259     0.874460  Biso 1.000000     C
    C   1.0     0.377773     0.012553     0.896045  Biso 1.000000     C
    C   1.0     0.375338     0.960976     0.849684  Biso 1.000000     C
    C   1.0     0.370712     0.975239     0.783128  Biso 1.000000     C
    C   1.0     0.345720     0.090634     0.478556  Biso 1.000000     C
    C   1.0     0.346179     0.087641     0.546149  Biso 1.000000     C
    C   1.0     0.369992     0.027014     0.577860  Biso 1.000000     C
    C   1.0     0.392626     0.972704     0.538722  Biso 1.000000     C
    C   1.0     0.390562     0.980501     0.471749  Biso 1.000000     C
    C   1.0     0.310238     0.092383     0.175432  Biso 1.000000     C
    C   1.0     0.308596     0.092133     0.107782  Biso 1.000000     C
    C   1.0     0.350655     0.039732     0.075993  Biso 1.000000     C
    C   1.0     0.392120     0.989140     0.114919  Biso 1.000000     C
    C   1.0     0.390921     0.993845     0.182281  Biso 1.000000     C
    C   1.0     0.125300     0.098903     0.323978  Biso 1.000000     C
    C   1.0     0.503334     0.656466     0.331194  Biso 1.000000     C
    C   1.0     0.112633     0.172266     0.324120  Biso 1.000000     C
    C   1.0     0.177394     0.222160     0.324520  Biso 1.000000     C
    C   1.0     0.139646     0.286869     0.325453  Biso 1.000000     C
    C   1.0     0.046642     0.286057     0.325881  Biso 1.000000     C
    C   1.0     0.360153     0.901118     0.326293  Biso 1.000000     C
    C   1.0     0.985234     0.344250     0.327051  Biso 1.000000     C
    C   1.0     0.373879     0.827850     0.327675  Biso 1.000000     C
    C   1.0     0.309816     0.777637     0.329313  Biso 1.000000     C
    C   1.0     0.348404     0.713152     0.330391  Biso 1.000000     C
    C   1.0     0.441368     0.714453     0.329890  Biso 1.000000     C
    C   1.0     0.659206     0.560986     0.698301  Biso 1.000000     C
    C   1.0     0.626674     0.492620     0.970217  Biso 1.000000     C
    C   1.0     0.644969     0.540285     0.767053  Biso 1.000000     C
    C   1.0     0.644693     0.473838     0.788867  Biso 1.000000     C
    C   1.0     0.639233     0.460057     0.854903  Biso 1.000000     C
    C   1.0     0.633431     0.511892     0.900447  Biso 1.000000     C
    C   1.0     0.631191     0.578380     0.878076  Biso 1.000000     C
    C   1.0     0.637542     0.592294     0.812269  Biso 1.000000     C
    C   1.0     0.611307     0.478426     0.474697  Biso 1.000000     C
    C   1.0     0.612342     0.470759     0.541684  Biso 1.000000     C
    C   1.0     0.638112     0.524837     0.582864  Biso 1.000000     C
    C   1.0     0.662005     0.585035     0.553043  Biso 1.000000     C
    C   1.0     0.659066     0.587986     0.485318  Biso 1.000000     C
    C   1.0     0.590839     0.496334     0.182235  Biso 1.000000     C
    C   1.0     0.596576     0.490994     0.115287  Biso 1.000000     C
    C   1.0     0.638988     0.542435     0.082787  Biso 1.000000     C
    C   1.0     0.673983     0.596643     0.120259  Biso 1.000000     C
    C   1.0     0.666019     0.597307     0.187095  Biso 1.000000     C
    C   1.0     0.852997     0.437208     0.691443  Biso 1.000000     C
    C   1.0     0.881971     0.506870     0.966509  Biso 1.000000     C
    C   1.0     0.868053     0.458173     0.761648  Biso 1.000000     C
    C   1.0     0.873208     0.406411     0.808045  Biso 1.000000     C
    C   1.0     0.878558     0.420750     0.874466  Biso 1.000000     C
    C   1.0     0.877802     0.487455     0.896048  Biso 1.000000     C
    C   1.0     0.875348     0.539036     0.849684  Biso 1.000000     C
    C   1.0     0.870717     0.524776     0.783129  Biso 1.000000     C
    C   1.0     0.845715     0.409400     0.478562  Biso 1.000000     C
    C   1.0     0.846178     0.412389     0.546155  Biso 1.000000     C
    C   1.0     0.870007     0.473008     0.577864  Biso 1.000000     C
    C   1.0     0.892648     0.527314     0.538725  Biso 1.000000     C
    C   1.0     0.890579     0.519520     0.471752  Biso 1.000000     C
    C   1.0     0.810256     0.407646     0.175443  Biso 1.000000     C
    C   1.0     0.808629     0.407886     0.107794  Biso 1.000000     C
    C   1.0     0.850692     0.460275     0.075999  Biso 1.000000     C
    C   1.0     0.892142     0.510867     0.114920  Biso 1.000000     C
    C   1.0     0.890930     0.506172     0.182281  Biso 1.000000     C
    C   1.0     0.625318     0.401090     0.323977  Biso 1.000000     C
    C   1.0     0.003314     0.843534     0.331198  Biso 1.000000     C
    C   1.0     0.612648     0.327730     0.324124  Biso 1.000000     C
    C   1.0     0.677408     0.277823     0.324526  Biso 1.000000     C
    C   1.0     0.639658     0.213122     0.325459  Biso 1.000000     C
    C   1.0     0.546654     0.213951     0.325887  Biso 1.000000     C
    C   1.0     0.860169     0.598901     0.326292  Biso 1.000000     C
    C   1.0     0.485213     0.155770     0.327055  Biso 1.000000     C
    C   1.0     0.873891     0.672167     0.327677  Biso 1.000000     C
    C   1.0     0.809829     0.722393     0.329315  Biso 1.000000     C
    C   1.0     0.848420     0.786871     0.330394  Biso 1.000000     C
    C   1.0     0.941383     0.785555     0.329894  Biso 1.000000     C
    C   1.0     0.840846     0.060999     0.301698  Biso 1.000000     C
    C   1.0     0.873380     0.992618     0.029789  Biso 1.000000     C
    C   1.0     0.855082     0.040292     0.232948  Biso 1.000000     C
    C   1.0     0.855369     0.973846     0.211142  Biso 1.000000     C
    C   1.0     0.860828     0.960061     0.145108  Biso 1.000000     C
    C   1.0     0.866617     0.011890     0.099557  Biso 1.000000     C
    C   1.0     0.868852     0.078379     0.121919  Biso 1.000000     C
    C   1.0     0.862504     0.092297     0.187725  Biso 1.000000     C
    C   1.0     0.888752     0.978451     0.525313  Biso 1.000000     C
    C   1.0     0.887705     0.970777     0.458327  Biso 1.000000     C
    C   1.0     0.861935     0.024857     0.417141  Biso 1.000000     C
    C   1.0     0.838056     0.085065     0.446955  Biso 1.000000     C
    C   1.0     0.841006     0.088022     0.514680  Biso 1.000000     C
    C   1.0     0.909226     0.996340     0.817772  Biso 1.000000     C
    C   1.0     0.903477     0.990996     0.884719  Biso 1.000000     C
    C   1.0     0.861059     0.042443     0.917216  Biso 1.000000     C
    C   1.0     0.826074     0.096662     0.879741  Biso 1.000000     C
    C   1.0     0.834051     0.097330     0.812907  Biso 1.000000     C
    C   1.0     0.647056     0.937194     0.308572  Biso 1.000000     C
    C   1.0     0.618096     0.006867     0.033503  Biso 1.000000     C
    C   1.0     0.632009     0.958166     0.238366  Biso 1.000000     C
    C   1.0     0.626865     0.906407     0.191972  Biso 1.000000     C
    C   1.0     0.621521     0.920748     0.125550  Biso 1.000000     C
    C   1.0     0.622270     0.987454     0.103966  Biso 1.000000     C
    C   1.0     0.624706     0.039031     0.150327  Biso 1.000000     C
    C   1.0     0.629332     0.024768     0.216883  Biso 1.000000     C
    C   1.0     0.654324     0.909374     0.521454  Biso 1.000000     C
    C   1.0     0.653865     0.912366     0.453862  Biso 1.000000     C
    C   1.0     0.630052     0.972993     0.422151  Biso 1.000000     C
    C   1.0     0.607416     0.027303     0.461289  Biso 1.000000     C
    C   1.0     0.609480     0.019506     0.528261  Biso 1.000000     C
    C   1.0     0.689805     0.907624     0.824579  Biso 1.000000     C
    C   1.0     0.691447     0.907874     0.892229  Biso 1.000000     C
    C   1.0     0.649389     0.960275     0.924018  Biso 1.000000     C
    C   1.0     0.607924     0.010867     0.885091  Biso 1.000000     C
    C   1.0     0.609123     0.006162     0.817730  Biso 1.000000     C
    C   1.0     0.874744     0.901104     0.676033  Biso 1.000000     C
    C   1.0     0.496709     0.343541     0.668817  Biso 1.000000     C
    C   1.0     0.887411     0.827742     0.675891  Biso 1.000000     C
    C   1.0     0.822649     0.777847     0.675491  Biso 1.000000     C
    C   1.0     0.860397     0.713138     0.674558  Biso 1.000000     C
    C   1.0     0.953401     0.713950     0.674131  Biso 1.000000     C
    C   1.0     0.639890     0.098890     0.673717  Biso 1.000000     C
    C   1.0     0.014810     0.655758     0.672959  Biso 1.000000     C
    C   1.0     0.626164     0.172157     0.672335  Biso 1.000000     C
    C   1.0     0.690227     0.222370     0.670697  Biso 1.000000     C
    C   1.0     0.651639     0.286856     0.669620  Biso 1.000000     C
    C   1.0     0.558675     0.285554     0.670121  Biso 1.000000     C
    N   1.0     0.363162     0.485083     0.350028  Biso 1.000000     N
    N   1.0     0.365524     0.463944     0.554146  Biso 1.000000     N
    N   1.0     0.352988     0.456797     0.984544  Biso 1.000000     N
    N   1.0     0.375022     0.452090     0.781745  Biso 1.000000     N
    N   1.0     0.126231     0.516807     0.354872  Biso 1.000000     N
    N   1.0     0.132977     0.538396     0.558948  Biso 1.000000     N
    N   1.0     0.150353     0.541097     0.992076  Biso 1.000000     N
    N   1.0     0.149111     0.544088     0.787112  Biso 1.000000     N
    N   1.0     0.136883     0.985072     0.649987  Biso 1.000000     N
    N   1.0     0.134494     0.963913     0.445870  Biso 1.000000     N
    N   1.0     0.147060     0.956791     0.015475  Biso 1.000000     N
    N   1.0     0.124992     0.952074     0.218271  Biso 1.000000     N
    N   1.0     0.373795     0.016817     0.645134  Biso 1.000000     N
    N   1.0     0.367059     0.038417     0.441058  Biso 1.000000     N
    N   1.0     0.349645     0.041090     0.007927  Biso 1.000000     N
    N   1.0     0.350924     0.044108     0.212893  Biso 1.000000     N
    N   1.0     0.636881     0.514924     0.649982  Biso 1.000000     N
    N   1.0     0.634519     0.536063     0.445864  Biso 1.000000     N
    N   1.0     0.647056     0.543210     0.015466  Biso 1.000000     N
    N   1.0     0.625021     0.547918     0.218265  Biso 1.000000     N
    N   1.0     0.873812     0.483200     0.645138  Biso 1.000000     N
    N   1.0     0.867066     0.461611     0.441062  Biso 1.000000     N
    N   1.0     0.849690     0.458910     0.007935  Biso 1.000000     N
    N   1.0     0.850933     0.455919     0.212898  Biso 1.000000     N
    N   1.0     0.863160     0.014936     0.350023  Biso 1.000000     N
    N   1.0     0.865550     0.036094     0.554140  Biso 1.000000     N
    N   1.0     0.852983     0.043216     0.984536  Biso 1.000000     N
    N   1.0     0.875051     0.047933     0.781739  Biso 1.000000     N
    N   1.0     0.626248     0.983190     0.354876  Biso 1.000000     N
    N   1.0     0.632984     0.961590     0.558953  Biso 1.000000     N
    N   1.0     0.650399     0.958917     0.992083  Biso 1.000000     N
    N   1.0     0.649120     0.955899     0.787118  Biso 1.000000     N
    O   1.0     0.308444     0.383422     0.311837  Biso 1.000000     O
    O   1.0     0.394627     0.564341     0.013666  Biso 1.000000     O
    O   1.0     0.179009     0.618609     0.322021  Biso 1.000000     O
    O   1.0     0.089628     0.438200     0.013996  Biso 1.000000     O
    O   1.0     0.218624     0.425308     0.672152  Biso 1.000000     O
    O   1.0     0.069937     0.437978     0.675987  Biso 1.000000     O
    O   1.0     0.912276     0.166530     0.666943  Biso 1.000000     O
    O   1.0     0.030713     0.097483     0.669555  Biso 1.000000     O
    O   1.0     0.295969     0.574109     0.675167  Biso 1.000000     O
    O   1.0     0.445340     0.562414     0.676476  Biso 1.000000     O
    O   1.0     0.599164     0.834100     0.672484  Biso 1.000000     O
    O   1.0     0.480785     0.903101     0.672484  Biso 1.000000     O
    O   1.0     0.191580     0.883399     0.688194  Biso 1.000000     O
    O   1.0     0.105399     0.064346     0.986344  Biso 1.000000     O
    O   1.0     0.321038     0.118634     0.677984  Biso 1.000000     O
    O   1.0     0.410402     0.938201     0.986017  Biso 1.000000     O
    O   1.0     0.281400     0.925325     0.327860  Biso 1.000000     O
    O   1.0     0.430087     0.937983     0.324026  Biso 1.000000     O
    O   1.0     0.587786     0.666514     0.333065  Biso 1.000000     O
    O   1.0     0.469324     0.597480     0.330452  Biso 1.000000     O
    O   1.0     0.204053     0.074076     0.324838  Biso 1.000000     O
    O   1.0     0.054685     0.062415     0.323545  Biso 1.000000     O
    O   1.0     0.900900     0.334127     0.327525  Biso 1.000000     O
    O   1.0     0.019247     0.403107     0.327526  Biso 1.000000     O
    O   1.0     0.691600     0.616584     0.688173  Biso 1.000000     O
    O   1.0     0.605417     0.435666     0.986344  Biso 1.000000     O
    O   1.0     0.821034     0.381398     0.677990  Biso 1.000000     O
    O   1.0     0.910416     0.561806     0.986014  Biso 1.000000     O
    O   1.0     0.781419     0.574699     0.327859  Biso 1.000000     O
    O   1.0     0.930107     0.562029     0.324023  Biso 1.000000     O
    O   1.0     0.087767     0.833477     0.333068  Biso 1.000000     O
    O   1.0     0.969331     0.902524     0.330455  Biso 1.000000     O
    O   1.0     0.704074     0.425898     0.324844  Biso 1.000000     O
    O   1.0     0.554703     0.437593     0.323530  Biso 1.000000     O
    O   1.0     0.400880     0.165907     0.327527  Biso 1.000000     O
    O   1.0     0.519258     0.096906     0.327527  Biso 1.000000     O
    O   1.0     0.808464     0.116608     0.311817  Biso 1.000000     O
    O   1.0     0.894645     0.935662     0.013666  Biso 1.000000     O
    O   1.0     0.679006     0.881373     0.322026  Biso 1.000000     O
    O   1.0     0.589642     0.061806     0.013994  Biso 1.000000     O
    O   1.0     0.718643     0.074682     0.672150  Biso 1.000000     O
    O   1.0     0.569957     0.062024     0.675984  Biso 1.000000     O
    O   1.0     0.412257     0.333493     0.666946  Biso 1.000000     O
    O   1.0     0.530719     0.402526     0.669559  Biso 1.000000     O
    O   1.0     0.795990     0.925931     0.675172  Biso 1.000000     O
    O   1.0     0.945359     0.937592     0.676467  Biso 1.000000     O
    O   1.0     0.099143     0.665880     0.672485  Biso 1.000000     O
    O   1.0     0.980797     0.596901     0.672485  Biso 1.000000     O
    S   1.0     0.018366     0.295496     0.672005  Biso 1.000000     S
    S   1.0     0.494700     0.705220     0.674825  Biso 1.000000     S
    S   1.0     0.481663     0.795488     0.328003  Biso 1.000000     S
    S   1.0     0.005329     0.205230     0.325179  Biso 1.000000     S
    S   1.0     0.981677     0.704511     0.328006  Biso 1.000000     S
    S   1.0     0.505343     0.294787     0.325184  Biso 1.000000     S
    S   1.0     0.518380     0.204519     0.672007  Biso 1.000000     S
    S   1.0     0.994714     0.794777     0.674832  Biso 1.000000     S
   Cd   1.0     0.376522     0.453585     0.667424  Biso 1.000000    Cd
   Cd   1.0     0.137346     0.547009     0.671948  Biso 1.000000    Cd
   Cd   1.0     0.123496     0.953569     0.332591  Biso 1.000000    Cd
   Cd   1.0     0.362688     0.047027     0.328057  Biso 1.000000    Cd
   Cd   1.0     0.623522     0.546422     0.332586  Biso 1.000000    Cd
   Cd   1.0     0.862697     0.452998     0.328062  Biso 1.000000    Cd
   Cd   1.0     0.876548     0.046438     0.667419  Biso 1.000000    Cd
   Cd   1.0     0.637356     0.952980     0.671953  Biso 1.000000    Cd
