#======================================================================

# CRYSTAL DATA

#----------------------------------------------------------------------

data_VESTA_phase_1


_pd_phase_name                         MOF
_cell_length_a                         20.20700
_cell_length_b                         23.11900
_cell_length_c                         14.89200
_cell_angle_alpha                      91.04600
_cell_angle_beta                       90.03200
_cell_angle_gamma                      90.03700
_symmetry_space_group_name_H-M         "P 1"
_symmetry_Int_Tables_number            1

loop_
_symmetry_equiv_pos_as_xyz
   "x, y, z"

loop_
   _atom_site_label
   _atom_site_occupancy
   _atom_site_fract_x
   _atom_site_fract_y
   _atom_site_fract_z
   _atom_site_adp_type
   _atom_site_B_iso_or_equiv
   _atom_site_type_symbol
    H   1.0     0.378952     0.428296     0.371135  Biso 1.000000     H
    H   1.0     0.378951     0.928295     0.371135  Biso 1.000000     H
    H   1.0     0.878958     0.428291     0.371132  Biso 1.000000     H
    H   1.0     0.878961     0.928298     0.371143  Biso 1.000000     H
    H   1.0     0.027291     0.237227     0.269569  Biso 1.000000     H
    H   1.0     0.027137     0.737221     0.269625  Biso 1.000000     H
    H   1.0     0.527264     0.237225     0.269577  Biso 1.000000     H
    H   1.0     0.527261     0.737223     0.269577  Biso 1.000000     H
    H   1.0     0.304613     0.280201     0.046678  Biso 1.000000     H
    H   1.0     0.304611     0.780200     0.046677  Biso 1.000000     H
    H   1.0     0.804620     0.280163     0.046719  Biso 1.000000     H
    H   1.0     0.804628     0.780311     0.046532  Biso 1.000000     H
    H   1.0     0.104541     0.490288     0.231329  Biso 1.000000     H
    H   1.0     0.104536     0.990290     0.231333  Biso 1.000000     H
    H   1.0     0.604547     0.490289     0.231331  Biso 1.000000     H
    H   1.0     0.604546     0.990288     0.231331  Biso 1.000000     H
    H   1.0     0.080167     0.344813     0.918757  Biso 1.000000     H
    H   1.0     0.080224     0.844812     0.918795  Biso 1.000000     H
    H   1.0     0.580184     0.344814     0.918760  Biso 1.000000     H
    H   1.0     0.580180     0.844812     0.918757  Biso 1.000000     H
    H   1.0     0.354404     0.501699     0.012922  Biso 1.000000     H
    H   1.0     0.354402     0.000000     0.012926  Biso 1.000000     H
    H   1.0     0.854410     0.501697     0.012925  Biso 1.000000     H
    H   1.0     0.854415     0.000000     0.012921  Biso 1.000000     H
    H   1.0     0.128756     0.321932     0.128852  Biso 1.000000     H
    H   1.0     0.128752     0.821912     0.128869  Biso 1.000000     H
    H   1.0     0.628763     0.321931     0.128854  Biso 1.000000     H
    H   1.0     0.628761     0.821930     0.128854  Biso 1.000000     H
    H   1.0     0.275572     0.012877     0.230035  Biso 1.000000     H
    H   1.0     0.275577     0.512875     0.230035  Biso 1.000000     H
    H   1.0     0.775574     0.012876     0.230029  Biso 1.000000     H
    H   1.0     0.775574     0.512876     0.230034  Biso 1.000000     H
    H   1.0     0.054894     0.469179     0.455173  Biso 1.000000     H
    H   1.0     0.054892     0.969171     0.455186  Biso 1.000000     H
    H   1.0     0.554902     0.469176     0.455178  Biso 1.000000     H
    H   1.0     0.554901     0.969174     0.455180  Biso 1.000000     H
    H   1.0     0.354648     0.259849     0.268941  Biso 1.000000     H
    H   1.0     0.354648     0.759849     0.268943  Biso 1.000000     H
    H   1.0     0.854665     0.259853     0.268950  Biso 1.000000     H
    H   1.0     0.854648     0.759846     0.268934  Biso 1.000000     H
    H   1.0     0.330770     0.405176     0.580899  Biso 1.000000     H
    H   1.0     0.330766     0.905174     0.580903  Biso 1.000000     H
    H   1.0     0.830771     0.405175     0.580909  Biso 1.000000     H
    H   1.0     0.830778     0.905175     0.580898  Biso 1.000000     H
    H   1.0     0.104393     0.248372     0.487102  Biso 1.000000     H
    H   1.0     0.104392     0.748366     0.487097  Biso 1.000000     H
    H   1.0     0.604401     0.248370     0.487099  Biso 1.000000     H
    H   1.0     0.604400     0.748369     0.487100  Biso 1.000000     H
    H   1.0     0.121049     0.071707     0.628842  Biso 1.000000     H
    H   1.0     0.121048     0.571710     0.628831  Biso 1.000000     H
    H   1.0     0.621058     0.071710     0.628837  Biso 1.000000     H
    H   1.0     0.621056     0.571707     0.628839  Biso 1.000000     H
    H   1.0     0.472726     0.262783     0.730418  Biso 1.000000     H
    H   1.0     0.472718     0.762781     0.730420  Biso 1.000000     H
    H   1.0     0.972716     0.262782     0.730424  Biso 1.000000     H
    H   1.0     0.972826     0.762789     0.730400  Biso 1.000000     H
    H   1.0     0.195390     0.219816     0.953283  Biso 1.000000     H
    H   1.0     0.195376     0.719662     0.953498  Biso 1.000000     H
    H   1.0     0.695396     0.219784     0.953320  Biso 1.000000     H
    H   1.0     0.695395     0.719786     0.953318  Biso 1.000000     H
    H   1.0     0.395456     0.009719     0.768651  Biso 1.000000     H
    H   1.0     0.395461     0.509715     0.768645  Biso 1.000000     H
    H   1.0     0.895468     0.009717     0.768647  Biso 1.000000     H
    H   1.0     0.895462     0.509719     0.768652  Biso 1.000000     H
    H   1.0     0.419828     0.155187     0.081218  Biso 1.000000     H
    H   1.0     0.419825     0.655186     0.081216  Biso 1.000000     H
    H   1.0     0.919855     0.155187     0.081232  Biso 1.000000     H
    H   1.0     0.919788     0.655182     0.081190  Biso 1.000000     H
    H   1.0     0.145602    -0.001695     0.987053  Biso 1.000000     H
    H   1.0     0.145595     0.498299     0.987052  Biso 1.000000     H
    H   1.0     0.645608    -0.001698     0.987050  Biso 1.000000     H
    H   1.0     0.645607     0.498304     0.987054  Biso 1.000000     H
    H   1.0     0.371248     0.178070     0.871123  Biso 1.000000     H
    H   1.0     0.371247     0.678071     0.871123  Biso 1.000000     H
    H   1.0     0.871257     0.178062     0.871128  Biso 1.000000     H
    H   1.0     0.871255     0.678085     0.871113  Biso 1.000000     H
    H   1.0     0.224432     0.487127     0.769941  Biso 1.000000     H
    H   1.0     0.224421     0.987127     0.769938  Biso 1.000000     H
    H   1.0     0.724419     0.487128     0.769934  Biso 1.000000     H
    H   1.0     0.724441     0.987126     0.769940  Biso 1.000000     H
    H   1.0     0.445109     0.030832     0.544791  Biso 1.000000     H
    H   1.0     0.445108     0.530835     0.544786  Biso 1.000000     H
    H   1.0     0.945117     0.030837     0.544782  Biso 1.000000     H
    H   1.0     0.945116     0.530824     0.544804  Biso 1.000000     H
    H   1.0     0.145348     0.240152     0.731028  Biso 1.000000     H
    H   1.0     0.145360     0.740155     0.731042  Biso 1.000000     H
    H   1.0     0.645355     0.240150     0.731026  Biso 1.000000     H
    H   1.0     0.645361     0.740153     0.731033  Biso 1.000000     H
    H   1.0     0.169234     0.094829     0.419074  Biso 1.000000     H
    H   1.0     0.169238     0.594828     0.419067  Biso 1.000000     H
    H   1.0     0.669245     0.094829     0.419070  Biso 1.000000     H
    H   1.0     0.669240     0.594828     0.419076  Biso 1.000000     H
    H   1.0     0.395610     0.251635     0.512878  Biso 1.000000     H
    H   1.0     0.395609     0.751633     0.512876  Biso 1.000000     H
    H   1.0     0.895619     0.251635     0.512878  Biso 1.000000     H
    H   1.0     0.895617     0.751640     0.512887  Biso 1.000000     H
    C   1.0     0.419691     0.412171     0.328214  Biso 1.000000     C
    C   1.0     0.419690     0.912170     0.328214  Biso 1.000000     C
    C   1.0     0.919698     0.412167     0.328212  Biso 1.000000     C
    C   1.0     0.919699     0.912173     0.328221  Biso 1.000000     C
    C   1.0     0.013655     0.259732     0.207351  Biso 1.000000     C
    C   1.0     0.013564     0.759729     0.207384  Biso 1.000000     C
    C   1.0     0.513644     0.259731     0.207354  Biso 1.000000     C
    C   1.0     0.513642     0.759730     0.207354  Biso 1.000000     C
    C   1.0     0.358479     0.287676     0.053061  Biso 1.000000     C
    C   1.0     0.358477     0.787675     0.053061  Biso 1.000000     C
    C   1.0     0.858486     0.287640     0.053090  Biso 1.000000     C
    C   1.0     0.858492     0.787776     0.052966  Biso 1.000000     C
    C   1.0     0.068228     0.475795     0.179936  Biso 1.000000     C
    C   1.0     0.068227     0.975795     0.179937  Biso 1.000000     C
    C   1.0     0.568236     0.475796     0.179937  Biso 1.000000     C
    C   1.0     0.568235     0.975794     0.179937  Biso 1.000000     C
    C   1.0     0.050288     0.371696     0.965271  Biso 1.000000     C
    C   1.0     0.050322     0.871691     0.965290  Biso 1.000000     C
    C   1.0     0.550302     0.371696     0.965272  Biso 1.000000     C
    C   1.0     0.550299     0.871695     0.965271  Biso 1.000000     C
    C   1.0     0.363291     0.465113     0.057768  Biso 1.000000     C
    C   1.0     0.363289     0.965113     0.057770  Biso 1.000000     C
    C   1.0     0.863298     0.465111     0.057769  Biso 1.000000     C
    C   1.0     0.863300     0.965116     0.057769  Biso 1.000000     C
    C   1.0     0.169552     0.337939     0.171877  Biso 1.000000     C
    C   1.0     0.169549     0.837931     0.171883  Biso 1.000000     C
    C   1.0     0.669560     0.337939     0.171878  Biso 1.000000     C
    C   1.0     0.669557     0.837939     0.171877  Biso 1.000000     C
    C   1.0     0.262263     0.490294     0.292309  Biso 1.000000     C
    C   1.0     0.262260     0.990293     0.292310  Biso 1.000000     C
    C   1.0     0.762268     0.490294     0.292310  Biso 1.000000     C
    C   1.0     0.762264     0.990294     0.292306  Biso 1.000000     C
    C   1.0     0.108742     0.461756     0.448590  Biso 1.000000     C
    C   1.0     0.108741     0.961752     0.448596  Biso 1.000000     C
    C   1.0     0.608750     0.461755     0.448592  Biso 1.000000     C
    C   1.0     0.608749     0.961754     0.448593  Biso 1.000000     C
    C   1.0     0.318259     0.274270     0.320201  Biso 1.000000     C
    C   1.0     0.318259     0.774270     0.320202  Biso 1.000000     C
    C   1.0     0.818271     0.274272     0.320205  Biso 1.000000     C
    C   1.0     0.818263     0.774268     0.320199  Biso 1.000000     C
    C   1.0     0.300592     0.378325     0.534613  Biso 1.000000     C
    C   1.0     0.300590     0.878323     0.534615  Biso 1.000000     C
    C   1.0     0.800597     0.378325     0.534616  Biso 1.000000     C
    C   1.0     0.800599     0.878324     0.534613  Biso 1.000000     C
    C   1.0     0.113316     0.284943     0.442238  Biso 1.000000     C
    C   1.0     0.113314     0.784939     0.442237  Biso 1.000000     C
    C   1.0     0.613324     0.284942     0.442237  Biso 1.000000     C
    C   1.0     0.613323     0.784941     0.442238  Biso 1.000000     C
    C   1.0     0.080311     0.087833     0.671763  Biso 1.000000     C
    C   1.0     0.080309     0.587832     0.671755  Biso 1.000000     C
    C   1.0     0.580319     0.087834     0.671759  Biso 1.000000     C
    C   1.0     0.580317     0.587832     0.671760  Biso 1.000000     C
    C   1.0     0.486356     0.240273     0.792635  Biso 1.000000     C
    C   1.0     0.486352     0.740272     0.792635  Biso 1.000000     C
    C   1.0     0.986351     0.240273     0.792640  Biso 1.000000     C
    C   1.0     0.986417     0.740274     0.792628  Biso 1.000000     C
    C   1.0     0.141524     0.212340     0.946905  Biso 1.000000     C
    C   1.0     0.141512     0.712199     0.947047  Biso 1.000000     C
    C   1.0     0.641530     0.212310     0.946930  Biso 1.000000     C
    C   1.0     0.641529     0.712311     0.946929  Biso 1.000000     C
    C   1.0     0.431773     0.024210     0.820040  Biso 1.000000     C
    C   1.0     0.431773     0.524208     0.820038  Biso 1.000000     C
    C   1.0     0.931783     0.024209     0.820038  Biso 1.000000     C
    C   1.0     0.931779     0.524209     0.820041  Biso 1.000000     C
    C   1.0     0.449709     0.128304     0.034704  Biso 1.000000     C
    C   1.0     0.449707     0.628303     0.034704  Biso 1.000000     C
    C   1.0     0.949728     0.128303     0.034711  Biso 1.000000     C
    C   1.0     0.949688     0.628304     0.034692  Biso 1.000000     C
    C   1.0     0.136714     0.034890     0.942206  Biso 1.000000     C
    C   1.0     0.136709     0.534884     0.942205  Biso 1.000000     C
    C   1.0     0.636721     0.034887     0.942204  Biso 1.000000     C
    C   1.0     0.636720     0.534888     0.942207  Biso 1.000000     C
    C   1.0     0.330451     0.162064     0.828099  Biso 1.000000     C
    C   1.0     0.330450     0.662063     0.828100  Biso 1.000000     C
    C   1.0     0.830460     0.162060     0.828100  Biso 1.000000     C
    C   1.0     0.830459     0.662068     0.828095  Biso 1.000000     C
    C   1.0     0.237739     0.009710     0.707665  Biso 1.000000     C
    C   1.0     0.237740     0.509708     0.707665  Biso 1.000000     C
    C   1.0     0.737751     0.009709     0.707665  Biso 1.000000     C
    C   1.0     0.737741     0.509709     0.707664  Biso 1.000000     C
    C   1.0     0.391260     0.038251     0.551380  Biso 1.000000     C
    C   1.0     0.391259     0.538251     0.551378  Biso 1.000000     C
    C   1.0     0.891268     0.038253     0.551376  Biso 1.000000     C
    C   1.0     0.891267     0.538247     0.551387  Biso 1.000000     C
    C   1.0     0.181741     0.225733     0.679772  Biso 1.000000     C
    C   1.0     0.181746     0.725733     0.679778  Biso 1.000000     C
    C   1.0     0.681749     0.225732     0.679771  Biso 1.000000     C
    C   1.0     0.681750     0.725732     0.679774  Biso 1.000000     C
    C   1.0     0.199411     0.121680     0.465362  Biso 1.000000     C
    C   1.0     0.199412     0.621679     0.465359  Biso 1.000000     C
    C   1.0     0.699420     0.121680     0.465360  Biso 1.000000     C
    C   1.0     0.699418     0.621679     0.465363  Biso 1.000000     C
    C   1.0     0.386687     0.215063     0.557739  Biso 1.000000     C
    C   1.0     0.386686     0.715062     0.557738  Biso 1.000000     C
    C   1.0     0.886696     0.215063     0.557739  Biso 1.000000     C
    C   1.0     0.886695     0.715065     0.557744  Biso 1.000000     C
    O   1.0     0.405314     0.400221     0.246025  Biso 1.000000     O
    O   1.0     0.405313     0.900220     0.246025  Biso 1.000000     O
    O   1.0     0.905322     0.400219     0.246022  Biso 1.000000     O
    O   1.0     0.905322     0.900226     0.246032  Biso 1.000000     O
    O   1.0     0.475702     0.407573     0.364410  Biso 1.000000     O
    O   1.0     0.475701     0.907572     0.364409  Biso 1.000000     O
    O   1.0     0.975709     0.407572     0.364407  Biso 1.000000     O
    O   1.0     0.975710     0.907573     0.364417  Biso 1.000000     O
    O   1.0     0.510500     0.315244     0.214014  Biso 1.000000     O
    O   1.0     0.510498     0.815243     0.214014  Biso 1.000000     O
    O   1.0     0.000000     0.315244     0.214015  Biso 1.000000     O
    O   1.0     0.000000     0.815247     0.214017  Biso 1.000000     O
    O   1.0     0.502564     0.229889     0.138072  Biso 1.000000     O
    O   1.0     0.502563     0.729888     0.138071  Biso 1.000000     O
    O   1.0     0.000000     0.229889     0.138069  Biso 1.000000     O
    O   1.0     0.000000     0.729888     0.138103  Biso 1.000000     O
    O   1.0     0.375651     0.325875     0.112783  Biso 1.000000     O
    O   1.0     0.375649     0.825874     0.112783  Biso 1.000000     O
    O   1.0     0.875660     0.325860     0.112778  Biso 1.000000     O
    O   1.0     0.875655     0.825908     0.112796  Biso 1.000000     O
    O   1.0     0.396302     0.258649     0.000000  Biso 1.000000     O
    O   1.0     0.396300     0.758648     0.000000  Biso 1.000000     O
    O   1.0     0.896303     0.258596     0.000000  Biso 1.000000     O
    O   1.0     0.896332     0.758806     0.000000  Biso 1.000000     O
    O   1.0     0.043942     0.425059     0.191170  Biso 1.000000     O
    O   1.0     0.043943     0.925058     0.191170  Biso 1.000000     O
    O   1.0     0.543951     0.425059     0.191170  Biso 1.000000     O
    O   1.0     0.543950     0.925058     0.191170  Biso 1.000000     O
    O   1.0     0.055496     0.009835     0.117837  Biso 1.000000     O
    O   1.0     0.055493     0.509835     0.117840  Biso 1.000000     O
    O   1.0     0.555503     0.009835     0.117839  Biso 1.000000     O
    O   1.0     0.555502     0.509834     0.117839  Biso 1.000000     O
    O   1.0     0.013639     0.342970     0.020111  Biso 1.000000     O
    O   1.0     0.013675     0.842960     0.020126  Biso 1.000000     O
    O   1.0     0.513656     0.342969     0.020114  Biso 1.000000     O
    O   1.0     0.513653     0.842968     0.020113  Biso 1.000000     O
    O   1.0     0.055229     0.425381     0.961091  Biso 1.000000     O
    O   1.0     0.055236     0.925377     0.961089  Biso 1.000000     O
    O   1.0     0.555239     0.425381     0.961090  Biso 1.000000     O
    O   1.0     0.555237     0.925380     0.961090  Biso 1.000000     O
    O   1.0     0.423924     0.448155     0.063127  Biso 1.000000     O
    O   1.0     0.423922     0.948154     0.063127  Biso 1.000000     O
    O   1.0     0.923931     0.448154     0.063127  Biso 1.000000     O
    O   1.0     0.923933     0.948155     0.063125  Biso 1.000000     O
    O   1.0     0.314288     0.444621     0.097964  Biso 1.000000     O
    O   1.0     0.314286     0.944620     0.097964  Biso 1.000000     O
    O   1.0     0.814296     0.444618     0.097965  Biso 1.000000     O
    O   1.0     0.814296     0.944626     0.097963  Biso 1.000000     O
    O   1.0     0.155211     0.349845     0.254079  Biso 1.000000     O
    O   1.0     0.155209     0.849844     0.254083  Biso 1.000000     O
    O   1.0     0.655219     0.349845     0.254080  Biso 1.000000     O
    O   1.0     0.655217     0.849844     0.254079  Biso 1.000000     O
    O   1.0     0.225565     0.342484     0.135778  Biso 1.000000     O
    O   1.0     0.225560     0.842480     0.135779  Biso 1.000000     O
    O   1.0     0.725573     0.342483     0.135778  Biso 1.000000     O
    O   1.0     0.725570     0.842484     0.135778  Biso 1.000000     O
    O   1.0     0.260555     0.434707     0.286075  Biso 1.000000     O
    O   1.0     0.260553     0.934706     0.286076  Biso 1.000000     O
    O   1.0     0.760563     0.434707     0.286075  Biso 1.000000     O
    O   1.0     0.760560     0.934706     0.286075  Biso 1.000000     O
    O   1.0     0.250216     0.020048     0.361340  Biso 1.000000     O
    O   1.0     0.250216     0.520047     0.361339  Biso 1.000000     O
    O   1.0     0.750222     0.020049     0.361336  Biso 1.000000     O
    O   1.0     0.750222     0.520047     0.361341  Biso 1.000000     O
    O   1.0     0.125827     0.424358     0.387667  Biso 1.000000     O
    O   1.0     0.125826     0.924355     0.387671  Biso 1.000000     O
    O   1.0     0.625835     0.424357     0.387668  Biso 1.000000     O
    O   1.0     0.625834     0.924356     0.387668  Biso 1.000000     O
    O   1.0     0.146621     0.490123     0.499481  Biso 1.000000     O
    O   1.0     0.146620     0.990121     0.499484  Biso 1.000000     O
    O   1.0     0.646629     0.490123     0.499482  Biso 1.000000     O
    O   1.0     0.646628     0.990122     0.499482  Biso 1.000000     O
    O   1.0     0.293927     0.324951     0.308881  Biso 1.000000     O
    O   1.0     0.293925     0.824950     0.308881  Biso 1.000000     O
    O   1.0     0.793935     0.324951     0.308881  Biso 1.000000     O
    O   1.0     0.793933     0.824950     0.308882  Biso 1.000000     O
    O   1.0     0.305477     0.240180     0.382219  Biso 1.000000     O
    O   1.0     0.305476     0.740180     0.382219  Biso 1.000000     O
    O   1.0     0.805486     0.240181     0.382220  Biso 1.000000     O
    O   1.0     0.805484     0.740179     0.382219  Biso 1.000000     O
    O   1.0     0.263883     0.407070     0.479890  Biso 1.000000     O
    O   1.0     0.263882     0.907068     0.479890  Biso 1.000000     O
    O   1.0     0.763891     0.407069     0.479891  Biso 1.000000     O
    O   1.0     0.763890     0.907069     0.479890  Biso 1.000000     O
    O   1.0     0.305348     0.324633     0.538856  Biso 1.000000     O
    O   1.0     0.305347     0.824632     0.538856  Biso 1.000000     O
    O   1.0     0.805356     0.324633     0.538857  Biso 1.000000     O
    O   1.0     0.805355     0.824632     0.538856  Biso 1.000000     O
    O   1.0     0.173970     0.301883     0.436885  Biso 1.000000     O
    O   1.0     0.173967     0.801881     0.436885  Biso 1.000000     O
    O   1.0     0.673977     0.301883     0.436885  Biso 1.000000     O
    O   1.0     0.673976     0.801881     0.436885  Biso 1.000000     O
    O   1.0     0.064316     0.305479     0.402079  Biso 1.000000     O
    O   1.0     0.064313     0.805476     0.402079  Biso 1.000000     O
    O   1.0     0.564323     0.305478     0.402079  Biso 1.000000     O
    O   1.0     0.564322     0.805477     0.402079  Biso 1.000000     O
    O   1.0     0.094688     0.099784     0.753951  Biso 1.000000     O
    O   1.0     0.094686     0.599777     0.753944  Biso 1.000000     O
    O   1.0     0.594696     0.099782     0.753949  Biso 1.000000     O
    O   1.0     0.594695     0.599781     0.753949  Biso 1.000000     O
    O   1.0     0.024300     0.092432     0.635567  Biso 1.000000     O
    O   1.0     0.024297     0.592431     0.635560  Biso 1.000000     O
    O   1.0     0.524308     0.092432     0.635564  Biso 1.000000     O
    O   1.0     0.524306     0.592431     0.635565  Biso 1.000000     O
    O   1.0    -0.010498     0.184762     0.785964  Biso 1.000000     O
    O   1.0    -0.010492     0.684759     0.785966  Biso 1.000000     O
    O   1.0     0.489511     0.184761     0.785963  Biso 1.000000     O
    O   1.0     0.489509     0.684760     0.785963  Biso 1.000000     O
    O   1.0    -0.002583     0.270113     0.861924  Biso 1.000000     O
    O   1.0    -0.002498     0.770110     0.861910  Biso 1.000000     O
    O   1.0     0.497442     0.270113     0.861918  Biso 1.000000     O
    O   1.0     0.497439     0.770112     0.861918  Biso 1.000000     O
    O   1.0     0.124352     0.174133     0.887194  Biso 1.000000     O
    O   1.0     0.124353     0.674091     0.887178  Biso 1.000000     O
    O   1.0     0.624360     0.174122     0.887190  Biso 1.000000     O
    O   1.0     0.624360     0.674122     0.887190  Biso 1.000000     O
    O   1.0     0.103703     0.241371    -0.003207  Biso 1.000000     O
    O   1.0     0.103667     0.741148    -0.002995  Biso 1.000000     O
    O   1.0     0.603705     0.241326    -0.003169  Biso 1.000000     O
    O   1.0     0.603704     0.741329    -0.003173  Biso 1.000000     O
    O   1.0     0.456059     0.074945     0.808806  Biso 1.000000     O
    O   1.0     0.456058     0.574944     0.808805  Biso 1.000000     O
    O   1.0     0.956068     0.074945     0.808805  Biso 1.000000     O
    O   1.0     0.956065     0.574945     0.808807  Biso 1.000000     O
    O   1.0     0.444508     0.490169     0.882135  Biso 1.000000     O
    O   1.0     0.444506     0.990168     0.882136  Biso 1.000000     O
    O   1.0     0.944514     0.490170     0.882138  Biso 1.000000     O
    O   1.0     0.944516     0.990167     0.882134  Biso 1.000000     O
    O   1.0     0.486356     0.157031     0.979863  Biso 1.000000     O
    O   1.0     0.486355     0.657031     0.979863  Biso 1.000000     O
    O   1.0     0.986373     0.157029     0.979867  Biso 1.000000     O
    O   1.0     0.986334     0.657036     0.979856  Biso 1.000000     O
    O   1.0     0.444771     0.074619     0.038886  Biso 1.000000     O
    O   1.0     0.444770     0.574618     0.038886  Biso 1.000000     O
    O   1.0     0.944782     0.074618     0.038886  Biso 1.000000     O
    O   1.0     0.944772     0.574618     0.038888  Biso 1.000000     O
    O   1.0     0.076080     0.051846     0.936846  Biso 1.000000     O
    O   1.0     0.076076     0.551844     0.936850  Biso 1.000000     O
    O   1.0     0.576088     0.051846     0.936846  Biso 1.000000     O
    O   1.0     0.576086     0.551845     0.936847  Biso 1.000000     O
    O   1.0     0.185716     0.055383     0.902011  Biso 1.000000     O
    O   1.0     0.185713     0.555376     0.902012  Biso 1.000000     O
    O   1.0     0.685723     0.055381     0.902010  Biso 1.000000     O
    O   1.0     0.685722     0.555381     0.902012  Biso 1.000000     O
    O   1.0     0.344792     0.150159     0.745896  Biso 1.000000     O
    O   1.0     0.344791     0.650158     0.745897  Biso 1.000000     O
    O   1.0     0.844800     0.150159     0.745897  Biso 1.000000     O
    O   1.0     0.844800     0.650158     0.745895  Biso 1.000000     O
    O   1.0     0.274438     0.157521     0.864197  Biso 1.000000     O
    O   1.0     0.274437     0.657518     0.864198  Biso 1.000000     O
    O   1.0     0.774446     0.157519     0.864197  Biso 1.000000     O
    O   1.0     0.774447     0.657521     0.864197  Biso 1.000000     O
    O   1.0     0.239447     0.065297     0.713900  Biso 1.000000     O
    O   1.0     0.239448     0.565295     0.713899  Biso 1.000000     O
    O   1.0     0.739457     0.065297     0.713899  Biso 1.000000     O
    O   1.0     0.739454     0.565296     0.713900  Biso 1.000000     O
    O   1.0     0.249787     0.479955     0.638635  Biso 1.000000     O
    O   1.0     0.249784     0.979955     0.638635  Biso 1.000000     O
    O   1.0     0.749791     0.479956     0.638635  Biso 1.000000     O
    O   1.0     0.749794     0.979955     0.638634  Biso 1.000000     O
    O   1.0     0.374175     0.075648     0.612306  Biso 1.000000     O
    O   1.0     0.374174     0.575647     0.612305  Biso 1.000000     O
    O   1.0     0.874183     0.075649     0.612304  Biso 1.000000     O
    O   1.0     0.874183     0.575647     0.612308  Biso 1.000000     O
    O   1.0     0.353381     0.009882     0.500492  Biso 1.000000     O
    O   1.0     0.353380     0.509881     0.500491  Biso 1.000000     O
    O   1.0     0.853389     0.009883     0.500489  Biso 1.000000     O
    O   1.0     0.853389     0.509880     0.500495  Biso 1.000000     O
    O   1.0     0.206076     0.175053     0.691094  Biso 1.000000     O
    O   1.0     0.206075     0.675051     0.691093  Biso 1.000000     O
    O   1.0     0.706084     0.175053     0.691093  Biso 1.000000     O
    O   1.0     0.706084     0.675052     0.691094  Biso 1.000000     O
    O   1.0     0.194525     0.259823     0.617756  Biso 1.000000     O
    O   1.0     0.194524     0.759823     0.617758  Biso 1.000000     O
    O   1.0     0.694532     0.259823     0.617756  Biso 1.000000     O
    O   1.0     0.694532     0.759822     0.617756  Biso 1.000000     O
    O   1.0     0.236119     0.092935     0.520085  Biso 1.000000     O
    O   1.0     0.236119     0.592933     0.520084  Biso 1.000000     O
    O   1.0     0.736128     0.092935     0.520084  Biso 1.000000     O
    O   1.0     0.736127     0.592934     0.520086  Biso 1.000000     O
    O   1.0     0.194655     0.175371     0.461119  Biso 1.000000     O
    O   1.0     0.194654     0.675370     0.461119  Biso 1.000000     O
    O   1.0     0.694663     0.175372     0.461119  Biso 1.000000     O
    O   1.0     0.694662     0.675370     0.461119  Biso 1.000000     O
    O   1.0     0.326034     0.198122     0.563091  Biso 1.000000     O
    O   1.0     0.326032     0.698121     0.563091  Biso 1.000000     O
    O   1.0     0.826042     0.198122     0.563091  Biso 1.000000     O
    O   1.0     0.826042     0.698122     0.563092  Biso 1.000000     O
    O   1.0     0.435688     0.194527     0.597898  Biso 1.000000     O
    O   1.0     0.435686     0.694526     0.597898  Biso 1.000000     O
    O   1.0     0.935696     0.194527     0.597898  Biso 1.000000     O
    O   1.0     0.935696     0.694527     0.597900  Biso 1.000000     O
   Zn   1.0     0.464115     0.377375     0.129619  Biso 1.000000    Zn
   Zn   1.0     0.464113     0.877374     0.129619  Biso 1.000000    Zn
   Zn   1.0     0.964122     0.377374     0.129619  Biso 1.000000    Zn
   Zn   1.0     0.964125     0.877377     0.129620  Biso 1.000000    Zn
   Zn   1.0     0.058751     0.370348     0.308728  Biso 1.000000    Zn
   Zn   1.0     0.058747     0.870346     0.308731  Biso 1.000000    Zn
   Zn   1.0     0.558758     0.370348     0.308729  Biso 1.000000    Zn
   Zn   1.0     0.558757     0.870347     0.308729  Biso 1.000000    Zn
   Zn   1.0     0.214146     0.372645     0.370411  Biso 1.000000    Zn
   Zn   1.0     0.214144     0.872644     0.370412  Biso 1.000000    Zn
   Zn   1.0     0.714154     0.372645     0.370411  Biso 1.000000    Zn
   Zn   1.0     0.714153     0.872644     0.370412  Biso 1.000000    Zn
   Zn   1.0     0.308761     0.379756     0.191346  Biso 1.000000    Zn
   Zn   1.0     0.308758     0.879755     0.191346  Biso 1.000000    Zn
   Zn   1.0     0.808769     0.379754     0.191344  Biso 1.000000    Zn
   Zn   1.0     0.808765     0.879760     0.191351  Biso 1.000000    Zn
   Zn   1.0     0.035889     0.122628     0.870357  Biso 1.000000    Zn
   Zn   1.0     0.035883     0.622624     0.870358  Biso 1.000000    Zn
   Zn   1.0     0.535896     0.122627     0.870357  Biso 1.000000    Zn
   Zn   1.0     0.535895     0.622627     0.870356  Biso 1.000000    Zn
   Zn   1.0     0.441252     0.129657     0.691247  Biso 1.000000    Zn
   Zn   1.0     0.441251     0.629656     0.691247  Biso 1.000000    Zn
   Zn   1.0     0.941260     0.129657     0.691247  Biso 1.000000    Zn
   Zn   1.0     0.941261     0.629657     0.691247  Biso 1.000000    Zn
   Zn   1.0     0.285856     0.127359     0.629564  Biso 1.000000    Zn
   Zn   1.0     0.285855     0.627358     0.629563  Biso 1.000000    Zn
   Zn   1.0     0.785864     0.127360     0.629564  Biso 1.000000    Zn
   Zn   1.0     0.785864     0.627358     0.629563  Biso 1.000000    Zn
   Zn   1.0     0.191242     0.120248     0.808630  Biso 1.000000    Zn
   Zn   1.0     0.191243     0.620242     0.808624  Biso 1.000000    Zn
   Zn   1.0     0.691250     0.120246     0.808628  Biso 1.000000    Zn
   Zn   1.0     0.691250     0.620246     0.808629  Biso 1.000000    Zn
   Zn   1.0    -0.000001     0.249997     0.000004  Biso 1.000000    Zn
   Zn   1.0    -0.000003     0.749995     0.000009  Biso 1.000000    Zn
   Zn   1.0     0.500007     0.249998     0.000003  Biso 1.000000    Zn
   Zn   1.0     0.500006     0.749997     0.000003  Biso 1.000000    Zn
   Zn   1.0     0.250002     0.000003     0.499988  Biso 1.000000    Zn
   Zn   1.0     0.250001     0.500002     0.499988  Biso 1.000000    Zn
   Zn   1.0     0.750010     0.000003     0.499987  Biso 1.000000    Zn
   Zn   1.0     0.750009     0.500002     0.499987  Biso 1.000000    Zn
   Zn   1.0     0.000001    -0.000001    -0.000002  Biso 1.000000    Zn
   Zn   1.0    -0.000001     0.499999     0.000001  Biso 1.000000    Zn
   Zn   1.0     0.500008    -0.000000    -0.000000  Biso 1.000000    Zn
   Zn   1.0     0.500007     0.499999    -0.000000  Biso 1.000000    Zn
   Zn   1.0     0.250002     0.250002     0.499988  Biso 1.000000    Zn
   Zn   1.0     0.250000     0.750001     0.499988  Biso 1.000000    Zn
   Zn   1.0     0.750009     0.250002     0.499988  Biso 1.000000    Zn
   Zn   1.0     0.750009     0.750001     0.499988  Biso 1.000000    Zn
