#======================================================================

# CRYSTAL DATA

#----------------------------------------------------------------------

data_VESTA_phase_1


_pd_phase_name                         MOF
_cell_length_a                         20.23600
_cell_length_b                         23.19100
_cell_length_c                         14.79900
_cell_angle_alpha                      91.12900
_cell_angle_beta                       89.99300
_cell_angle_gamma                      89.94300
_symmetry_space_group_name_H-M         "P 1"
_symmetry_Int_Tables_number            1

loop_
_symmetry_equiv_pos_as_xyz
   "x, y, z"

loop_
   _atom_site_label
   _atom_site_occupancy
   _atom_site_fract_x
   _atom_site_fract_y
   _atom_site_fract_z
   _atom_site_adp_type
   _atom_site_B_iso_or_equiv
   _atom_site_type_symbol
    H   1.0     0.378763     0.427981     0.372434  Biso 1.000000     H
    H   1.0     0.378767     0.927974     0.372433  Biso 1.000000     H
    H   1.0     0.878762     0.427981     0.372433  Biso 1.000000     H
    H   1.0     0.878767     0.927975     0.372432  Biso 1.000000     H
    H   1.0     0.025258     0.237732     0.271533  Biso 1.000000     H
    H   1.0     0.025261     0.737724     0.271533  Biso 1.000000     H
    H   1.0     0.525249     0.237732     0.271537  Biso 1.000000     H
    H   1.0     0.525256     0.737724     0.271535  Biso 1.000000     H
    H   1.0     0.305041     0.281407     0.043259  Biso 1.000000     H
    H   1.0     0.305045     0.781400     0.043257  Biso 1.000000     H
    H   1.0     0.805040     0.281409     0.043254  Biso 1.000000     H
    H   1.0     0.805044     0.781403     0.043252  Biso 1.000000     H
    H   1.0     0.102335     0.490671     0.234280  Biso 1.000000     H
    H   1.0     0.102342     0.990662     0.234277  Biso 1.000000     H
    H   1.0     0.602338     0.490670     0.234276  Biso 1.000000     H
    H   1.0     0.602342     0.990662     0.234276  Biso 1.000000     H
    H   1.0     0.081189     0.345424     0.919380  Biso 1.000000     H
    H   1.0     0.081188     0.845417     0.919373  Biso 1.000000     H
    H   1.0     0.581183     0.345424     0.919374  Biso 1.000000     H
    H   1.0     0.581187     0.845417     0.919373  Biso 1.000000     H
    H   1.0     0.354438     0.501655     0.000000  Biso 1.000000     H
    H   1.0     0.354442     0.000000     0.000000  Biso 1.000000     H
    H   1.0     0.854437     0.501655     0.000000  Biso 1.000000     H
    H   1.0     0.854441     0.000000     0.000000  Biso 1.000000     H
    H   1.0     0.128891     0.322010     0.127605  Biso 1.000000     H
    H   1.0     0.128893     0.822008     0.127602  Biso 1.000000     H
    H   1.0     0.628889     0.322012     0.127604  Biso 1.000000     H
    H   1.0     0.628893     0.822006     0.127602  Biso 1.000000     H
    H   1.0     0.275057     0.012271     0.228467  Biso 1.000000     H
    H   1.0     0.275058     0.512263     0.228467  Biso 1.000000     H
    H   1.0     0.775061     0.012271     0.228469  Biso 1.000000     H
    H   1.0     0.775060     0.512264     0.228468  Biso 1.000000     H
    H   1.0     0.054998     0.468783     0.456843  Biso 1.000000     H
    H   1.0     0.055003     0.968779     0.456836  Biso 1.000000     H
    H   1.0     0.554998     0.468785     0.456841  Biso 1.000000     H
    H   1.0     0.555002     0.968779     0.456837  Biso 1.000000     H
    H   1.0     0.352457     0.259242     0.265747  Biso 1.000000     H
    H   1.0     0.352466     0.759237     0.265752  Biso 1.000000     H
    H   1.0     0.852457     0.259242     0.265747  Biso 1.000000     H
    H   1.0     0.852459     0.759234     0.265745  Biso 1.000000     H
    H   1.0     0.331310     0.404455     0.580403  Biso 1.000000     H
    H   1.0     0.331314     0.904448     0.580402  Biso 1.000000     H
    H   1.0     0.831310     0.404455     0.580401  Biso 1.000000     H
    H   1.0     0.831316     0.904448     0.580399  Biso 1.000000     H
    H   1.0     0.104557     0.248502     0.487892  Biso 1.000000     H
    H   1.0     0.104561     0.748495     0.487891  Biso 1.000000     H
    H   1.0     0.604556     0.248502     0.487891  Biso 1.000000     H
    H   1.0     0.604560     0.748495     0.487891  Biso 1.000000     H
    H   1.0     0.121237     0.072012     0.627535  Biso 1.000000     H
    H   1.0     0.121241     0.572004     0.627536  Biso 1.000000     H
    H   1.0     0.621236     0.072013     0.627535  Biso 1.000000     H
    H   1.0     0.621239     0.572003     0.627536  Biso 1.000000     H
    H   1.0     0.474747     0.262262     0.728433  Biso 1.000000     H
    H   1.0     0.474754     0.762254     0.728432  Biso 1.000000     H
    H   1.0     0.974754     0.262262     0.728431  Biso 1.000000     H
    H   1.0     0.974750     0.762254     0.728433  Biso 1.000000     H
    H   1.0     0.194959     0.218587     0.956707  Biso 1.000000     H
    H   1.0     0.194963     0.718578     0.956711  Biso 1.000000     H
    H   1.0     0.694959     0.218587     0.956709  Biso 1.000000     H
    H   1.0     0.694962     0.718580     0.956708  Biso 1.000000     H
    H   1.0     0.397660     0.009325     0.765694  Biso 1.000000     H
    H   1.0     0.397663     0.509318     0.765695  Biso 1.000000     H
    H   1.0     0.897662     0.009324     0.765692  Biso 1.000000     H
    H   1.0     0.897667     0.509315     0.765691  Biso 1.000000     H
    H   1.0     0.418816     0.154570     0.080594  Biso 1.000000     H
    H   1.0     0.418819     0.654562     0.080593  Biso 1.000000     H
    H   1.0     0.918817     0.154570     0.080597  Biso 1.000000     H
    H   1.0     0.918817     0.654562     0.080591  Biso 1.000000     H
    H   1.0     0.145561    -0.001659    -0.012325  Biso 1.000000     H
    H   1.0     0.145566     0.498333    -0.012324  Biso 1.000000     H
    H   1.0     0.645561    -0.001659    -0.012325  Biso 1.000000     H
    H   1.0     0.645564     0.498332    -0.012327  Biso 1.000000     H
    H   1.0     0.371109     0.177986     0.872364  Biso 1.000000     H
    H   1.0     0.371112     0.677981     0.872363  Biso 1.000000     H
    H   1.0     0.871108     0.177985     0.872364  Biso 1.000000     H
    H   1.0     0.871112     0.677979     0.872363  Biso 1.000000     H
    H   1.0     0.224940     0.487723     0.771501  Biso 1.000000     H
    H   1.0     0.224944     0.987715     0.771501  Biso 1.000000     H
    H   1.0     0.724946     0.487723     0.771504  Biso 1.000000     H
    H   1.0     0.724942     0.987715     0.771500  Biso 1.000000     H
    H   1.0     0.445002     0.031208     0.543131  Biso 1.000000     H
    H   1.0     0.445006     0.531200     0.543131  Biso 1.000000     H
    H   1.0     0.945001     0.031207     0.543132  Biso 1.000000     H
    H   1.0     0.945005     0.531202     0.543128  Biso 1.000000     H
    H   1.0     0.147540     0.240750     0.734219  Biso 1.000000     H
    H   1.0     0.147546     0.740744     0.734221  Biso 1.000000     H
    H   1.0     0.647540     0.240750     0.734219  Biso 1.000000     H
    H   1.0     0.647545     0.740743     0.734220  Biso 1.000000     H
    H   1.0     0.168689     0.095538     0.419569  Biso 1.000000     H
    H   1.0     0.168692     0.595531     0.419569  Biso 1.000000     H
    H   1.0     0.668690     0.095538     0.419567  Biso 1.000000     H
    H   1.0     0.668690     0.595531     0.419571  Biso 1.000000     H
    H   1.0     0.395443     0.251491     0.512078  Biso 1.000000     H
    H   1.0     0.395447     0.751483     0.512077  Biso 1.000000     H
    H   1.0     0.895442     0.251491     0.512077  Biso 1.000000     H
    H   1.0     0.895446     0.751483     0.512077  Biso 1.000000     H
    C   1.0     0.419607     0.411909     0.329411  Biso 1.000000     C
    C   1.0     0.419611     0.911902     0.329411  Biso 1.000000     C
    C   1.0     0.919606     0.411909     0.329411  Biso 1.000000     C
    C   1.0     0.919610     0.911902     0.329410  Biso 1.000000     C
    C   1.0     0.012075     0.259929     0.208597  Biso 1.000000     C
    C   1.0     0.012078     0.759922     0.208596  Biso 1.000000     C
    C   1.0     0.512071     0.259929     0.208598  Biso 1.000000     C
    C   1.0     0.512076     0.759922     0.208597  Biso 1.000000     C
    C   1.0     0.358799     0.288692     0.050317  Biso 1.000000     C
    C   1.0     0.358803     0.788685     0.050315  Biso 1.000000     C
    C   1.0     0.858798     0.288694     0.050314  Biso 1.000000     C
    C   1.0     0.858802     0.788687     0.050312  Biso 1.000000     C
    C   1.0     0.066636     0.476055     0.181976  Biso 1.000000     C
    C   1.0     0.066641     0.976047     0.181975  Biso 1.000000     C
    C   1.0     0.566636     0.476054     0.181975  Biso 1.000000     C
    C   1.0     0.566640     0.976047     0.181975  Biso 1.000000     C
    C   1.0     0.050880     0.371817     0.966338  Biso 1.000000     C
    C   1.0     0.050882     0.871809     0.966334  Biso 1.000000     C
    C   1.0     0.550878     0.371817     0.966335  Biso 1.000000     C
    C   1.0     0.550882     0.871809     0.966335  Biso 1.000000     C
    C   1.0     0.363351     0.465130     0.057297  Biso 1.000000     C
    C   1.0     0.363355     0.965122     0.057297  Biso 1.000000     C
    C   1.0     0.863350     0.465130     0.057296  Biso 1.000000     C
    C   1.0     0.863354     0.965123     0.057296  Biso 1.000000     C
    C   1.0     0.169682     0.338096     0.170628  Biso 1.000000     C
    C   1.0     0.169685     0.838091     0.170627  Biso 1.000000     C
    C   1.0     0.669681     0.338097     0.170628  Biso 1.000000     C
    C   1.0     0.669685     0.838090     0.170627  Biso 1.000000     C
    C   1.0     0.261955     0.490068     0.291419  Biso 1.000000     C
    C   1.0     0.261960     0.990060     0.291419  Biso 1.000000     C
    C   1.0     0.761955     0.490068     0.291420  Biso 1.000000     C
    C   1.0     0.761962     0.990060     0.291420  Biso 1.000000     C
    C   1.0     0.108754     0.461385     0.449749  Biso 1.000000     C
    C   1.0     0.108759     0.961379     0.449744  Biso 1.000000     C
    C   1.0     0.608754     0.461386     0.449747  Biso 1.000000     C
    C   1.0     0.608758     0.961379     0.449744  Biso 1.000000     C
    C   1.0     0.316710     0.273897     0.318020  Biso 1.000000     C
    C   1.0     0.316716     0.773890     0.318022  Biso 1.000000     C
    C   1.0     0.816709     0.273897     0.318020  Biso 1.000000     C
    C   1.0     0.816712     0.773889     0.318019  Biso 1.000000     C
    C   1.0     0.300929     0.378107     0.533559  Biso 1.000000     C
    C   1.0     0.300933     0.878099     0.533559  Biso 1.000000     C
    C   1.0     0.800929     0.378107     0.533558  Biso 1.000000     C
    C   1.0     0.800933     0.878099     0.533557  Biso 1.000000     C
    C   1.0     0.113410     0.284955     0.442793  Biso 1.000000     C
    C   1.0     0.113414     0.784948     0.442793  Biso 1.000000     C
    C   1.0     0.613410     0.284955     0.442793  Biso 1.000000     C
    C   1.0     0.613414     0.784948     0.442793  Biso 1.000000     C
    C   1.0     0.080394     0.088084     0.670557  Biso 1.000000     C
    C   1.0     0.080397     0.588076     0.670558  Biso 1.000000     C
    C   1.0     0.580393     0.088085     0.670557  Biso 1.000000     C
    C   1.0     0.580397     0.588076     0.670558  Biso 1.000000     C
    C   1.0     0.487927     0.240065     0.791371  Biso 1.000000     C
    C   1.0     0.487932     0.740057     0.791371  Biso 1.000000     C
    C   1.0     0.987930     0.240065     0.791370  Biso 1.000000     C
    C   1.0     0.987930     0.740057     0.791371  Biso 1.000000     C
    C   1.0     0.141201     0.211303     0.949648  Biso 1.000000     C
    C   1.0     0.141205     0.711294     0.949651  Biso 1.000000     C
    C   1.0     0.641200     0.211302     0.949650  Biso 1.000000     C
    C   1.0     0.641204     0.711295     0.949649  Biso 1.000000     C
    C   1.0     0.433363     0.023940     0.817995  Biso 1.000000     C
    C   1.0     0.433366     0.523932     0.817995  Biso 1.000000     C
    C   1.0     0.933363     0.023939     0.817994  Biso 1.000000     C
    C   1.0     0.933367     0.523931     0.817993  Biso 1.000000     C
    C   1.0     0.449122     0.128177     0.033634  Biso 1.000000     C
    C   1.0     0.449126     0.628170     0.033633  Biso 1.000000     C
    C   1.0     0.949122     0.128177     0.033635  Biso 1.000000     C
    C   1.0     0.949124     0.628170     0.033632  Biso 1.000000     C
    C   1.0     0.136649     0.034866     0.942674  Biso 1.000000     C
    C   1.0     0.136653     0.534858     0.942674  Biso 1.000000     C
    C   1.0     0.636648     0.034866     0.942674  Biso 1.000000     C
    C   1.0     0.636652     0.534858     0.942673  Biso 1.000000     C
    C   1.0     0.330318     0.161898     0.829341  Biso 1.000000     C
    C   1.0     0.330321     0.661892     0.829340  Biso 1.000000     C
    C   1.0     0.830317     0.161898     0.829341  Biso 1.000000     C
    C   1.0     0.830321     0.661891     0.829340  Biso 1.000000     C
    C   1.0     0.238043     0.009926     0.708550  Biso 1.000000     C
    C   1.0     0.238046     0.509918     0.708550  Biso 1.000000     C
    C   1.0     0.738041     0.009926     0.708549  Biso 1.000000     C
    C   1.0     0.738048     0.509918     0.708551  Biso 1.000000     C
    C   1.0     0.391246     0.038606     0.550225  Biso 1.000000     C
    C   1.0     0.391250     0.538599     0.550224  Biso 1.000000     C
    C   1.0     0.891245     0.038606     0.550225  Biso 1.000000     C
    C   1.0     0.891249     0.538600     0.550223  Biso 1.000000     C
    C   1.0     0.183289     0.226097     0.681948  Biso 1.000000     C
    C   1.0     0.183294     0.726089     0.681949  Biso 1.000000     C
    C   1.0     0.683289     0.226097     0.681948  Biso 1.000000     C
    C   1.0     0.683293     0.726089     0.681948  Biso 1.000000     C
    C   1.0     0.199071     0.121887     0.466411  Biso 1.000000     C
    C   1.0     0.199075     0.621879     0.466411  Biso 1.000000     C
    C   1.0     0.699071     0.121887     0.466410  Biso 1.000000     C
    C   1.0     0.699074     0.621879     0.466412  Biso 1.000000     C
    C   1.0     0.386590     0.215038     0.557176  Biso 1.000000     C
    C   1.0     0.386594     0.715030     0.557176  Biso 1.000000     C
    C   1.0     0.886589     0.215038     0.557176  Biso 1.000000     C
    C   1.0     0.886593     0.715031     0.557176  Biso 1.000000     C
    O   1.0     0.405402     0.400130     0.246545  Biso 1.000000     O
    O   1.0     0.405406     0.900123     0.246544  Biso 1.000000     O
    O   1.0     0.905402     0.400130     0.246545  Biso 1.000000     O
    O   1.0     0.905406     0.900122     0.246544  Biso 1.000000     O
    O   1.0     0.475439     0.407330     0.366141  Biso 1.000000     O
    O   1.0     0.475443     0.907322     0.366141  Biso 1.000000     O
    O   1.0     0.975438     0.407330     0.366141  Biso 1.000000     O
    O   1.0     0.975443     0.907322     0.366140  Biso 1.000000     O
    O   1.0     0.010554     0.315370     0.214185  Biso 1.000000     O
    O   1.0     0.010558     0.815362     0.214185  Biso 1.000000     O
    O   1.0     0.510554     0.315370     0.214185  Biso 1.000000     O
    O   1.0     0.510557     0.815362     0.214185  Biso 1.000000     O
    O   1.0     0.499891     0.229931     0.139462  Biso 1.000000     O
    O   1.0     0.499896     0.729923     0.139461  Biso 1.000000     O
    O   1.0     0.999892     0.229931     0.139461  Biso 1.000000     O
    O   1.0     0.999895     0.729923     0.139461  Biso 1.000000     O
    O   1.0     0.375664     0.326519     0.110985  Biso 1.000000     O
    O   1.0     0.375668     0.826513     0.110982  Biso 1.000000     O
    O   1.0     0.875663     0.326523     0.110979  Biso 1.000000     O
    O   1.0     0.875667     0.826516     0.110977  Biso 1.000000     O
    O   1.0     0.396805     0.259845     0.000000  Biso 1.000000     O
    O   1.0     0.396809     0.759838     0.000000  Biso 1.000000     O
    O   1.0     0.896804     0.259846     0.000000  Biso 1.000000     O
    O   1.0     0.896808     0.759838     0.000000  Biso 1.000000     O
    O   1.0     0.043825     0.424842     0.191554  Biso 1.000000     O
    O   1.0     0.043829     0.924835     0.191553  Biso 1.000000     O
    O   1.0     0.543824     0.424842     0.191554  Biso 1.000000     O
    O   1.0     0.543828     0.924835     0.191553  Biso 1.000000     O
    O   1.0     0.053092     0.010390     0.120458  Biso 1.000000     O
    O   1.0     0.053095     0.510382     0.120459  Biso 1.000000     O
    O   1.0     0.553091     0.010390     0.120458  Biso 1.000000     O
    O   1.0     0.553095     0.510382     0.120458  Biso 1.000000     O
    O   1.0     0.013709     0.342753     0.020098  Biso 1.000000     O
    O   1.0     0.013713     0.842745     0.020097  Biso 1.000000     O
    O   1.0     0.513708     0.342753     0.020097  Biso 1.000000     O
    O   1.0     0.513712     0.842745     0.020097  Biso 1.000000     O
    O   1.0     0.055848     0.425390     0.963892  Biso 1.000000     O
    O   1.0     0.055851     0.925382     0.963889  Biso 1.000000     O
    O   1.0     0.555846     0.425390     0.963890  Biso 1.000000     O
    O   1.0     0.555850     0.925382     0.963890  Biso 1.000000     O
    O   1.0     0.423929     0.448275     0.062777  Biso 1.000000     O
    O   1.0     0.423933     0.948267     0.062777  Biso 1.000000     O
    O   1.0     0.923928     0.448275     0.062777  Biso 1.000000     O
    O   1.0     0.923932     0.948268     0.062777  Biso 1.000000     O
    O   1.0     0.314417     0.444672     0.097621  Biso 1.000000     O
    O   1.0     0.314421     0.944665     0.097621  Biso 1.000000     O
    O   1.0     0.814416     0.444673     0.097621  Biso 1.000000     O
    O   1.0     0.814420     0.944665     0.097621  Biso 1.000000     O
    O   1.0     0.155432     0.349877     0.253491  Biso 1.000000     O
    O   1.0     0.155436     0.849870     0.253490  Biso 1.000000     O
    O   1.0     0.655431     0.349877     0.253490  Biso 1.000000     O
    O   1.0     0.655435     0.849870     0.253490  Biso 1.000000     O
    O   1.0     0.225513     0.342688     0.133910  Biso 1.000000     O
    O   1.0     0.225517     0.842681     0.133909  Biso 1.000000     O
    O   1.0     0.725512     0.342688     0.133909  Biso 1.000000     O
    O   1.0     0.725516     0.842681     0.133908  Biso 1.000000     O
    O   1.0     0.260432     0.434632     0.285802  Biso 1.000000     O
    O   1.0     0.260436     0.934625     0.285802  Biso 1.000000     O
    O   1.0     0.760431     0.434632     0.285802  Biso 1.000000     O
    O   1.0     0.760436     0.934625     0.285802  Biso 1.000000     O
    O   1.0     0.249861     0.020080     0.360607  Biso 1.000000     O
    O   1.0     0.249864     0.520072     0.360607  Biso 1.000000     O
    O   1.0     0.749861     0.020080     0.360607  Biso 1.000000     O
    O   1.0     0.749864     0.520072     0.360607  Biso 1.000000     O
    O   1.0     0.125585     0.423482     0.389127  Biso 1.000000     O
    O   1.0     0.125590     0.923477     0.389122  Biso 1.000000     O
    O   1.0     0.625584     0.423483     0.389125  Biso 1.000000     O
    O   1.0     0.625589     0.923477     0.389121  Biso 1.000000     O
    O   1.0     0.146785     0.490188     0.499865  Biso 1.000000     O
    O   1.0     0.146789     0.990180     0.499864  Biso 1.000000     O
    O   1.0     0.646784     0.490188     0.499865  Biso 1.000000     O
    O   1.0     0.646788     0.990180     0.499864  Biso 1.000000     O
    O   1.0     0.293894     0.325148     0.308451  Biso 1.000000     O
    O   1.0     0.293898     0.825141     0.308450  Biso 1.000000     O
    O   1.0     0.793893     0.325148     0.308450  Biso 1.000000     O
    O   1.0     0.793897     0.825140     0.308450  Biso 1.000000     O
    O   1.0     0.303130     0.239577     0.379503  Biso 1.000000     O
    O   1.0     0.303135     0.739570     0.379504  Biso 1.000000     O
    O   1.0     0.803129     0.239578     0.379503  Biso 1.000000     O
    O   1.0     0.803133     0.739570     0.379503  Biso 1.000000     O
    O   1.0     0.263737     0.407221     0.479849  Biso 1.000000     O
    O   1.0     0.263741     0.907214     0.479849  Biso 1.000000     O
    O   1.0     0.763736     0.407221     0.479849  Biso 1.000000     O
    O   1.0     0.763740     0.907214     0.479848  Biso 1.000000     O
    O   1.0     0.305834     0.324525     0.536103  Biso 1.000000     O
    O   1.0     0.305838     0.824517     0.536102  Biso 1.000000     O
    O   1.0     0.805833     0.324525     0.536102  Biso 1.000000     O
    O   1.0     0.805837     0.824518     0.536101  Biso 1.000000     O
    O   1.0     0.173958     0.301786     0.437260  Biso 1.000000     O
    O   1.0     0.173962     0.801779     0.437260  Biso 1.000000     O
    O   1.0     0.673957     0.301786     0.437260  Biso 1.000000     O
    O   1.0     0.673961     0.801779     0.437260  Biso 1.000000     O
    O   1.0     0.064450     0.305363     0.402385  Biso 1.000000     O
    O   1.0     0.064454     0.805356     0.402385  Biso 1.000000     O
    O   1.0     0.564449     0.305363     0.402385  Biso 1.000000     O
    O   1.0     0.564453     0.805356     0.402385  Biso 1.000000     O
    O   1.0     0.094598     0.099863     0.753424  Biso 1.000000     O
    O   1.0     0.094602     0.599855     0.753424  Biso 1.000000     O
    O   1.0     0.594597     0.099863     0.753424  Biso 1.000000     O
    O   1.0     0.594601     0.599855     0.753424  Biso 1.000000     O
    O   1.0     0.024561     0.092664     0.633827  Biso 1.000000     O
    O   1.0     0.024565     0.592656     0.633827  Biso 1.000000     O
    O   1.0     0.524560     0.092664     0.633827  Biso 1.000000     O
    O   1.0     0.524564     0.592656     0.633828  Biso 1.000000     O
    O   1.0     0.489445     0.184624     0.785784  Biso 1.000000     O
    O   1.0     0.489449     0.684616     0.785784  Biso 1.000000     O
    O   1.0     0.989445     0.184624     0.785784  Biso 1.000000     O
    O   1.0     0.989449     0.684616     0.785784  Biso 1.000000     O
    O   1.0     0.000110     0.270063     0.860507  Biso 1.000000     O
    O   1.0     0.000112     0.770055     0.860507  Biso 1.000000     O
    O   1.0     0.500108     0.270063     0.860507  Biso 1.000000     O
    O   1.0     0.500112     0.770055     0.860507  Biso 1.000000     O
    O   1.0     0.124335     0.173479     0.888977  Biso 1.000000     O
    O   1.0     0.124339     0.673468     0.888982  Biso 1.000000     O
    O   1.0     0.624334     0.173477     0.888979  Biso 1.000000     O
    O   1.0     0.624338     0.673470     0.888978  Biso 1.000000     O
    O   1.0     0.103196     0.240148    -0.000121  Biso 1.000000     O
    O   1.0     0.103199     0.740141    -0.000121  Biso 1.000000     O
    O   1.0     0.603195     0.240148    -0.000121  Biso 1.000000     O
    O   1.0     0.603199     0.740141    -0.000121  Biso 1.000000     O
    O   1.0     0.456175     0.075152     0.808416  Biso 1.000000     O
    O   1.0     0.456179     0.575144     0.808416  Biso 1.000000     O
    O   1.0     0.956174     0.075152     0.808416  Biso 1.000000     O
    O   1.0     0.956178     0.575144     0.808415  Biso 1.000000     O
    O   1.0     0.446908     0.489604     0.879511  Biso 1.000000     O
    O   1.0     0.446912     0.989597     0.879511  Biso 1.000000     O
    O   1.0     0.946909     0.489604     0.879511  Biso 1.000000     O
    O   1.0     0.946912     0.989596     0.879511  Biso 1.000000     O
    O   1.0     0.486292     0.157241     0.979872  Biso 1.000000     O
    O   1.0     0.486296     0.657233     0.979871  Biso 1.000000     O
    O   1.0     0.986291     0.157241     0.979872  Biso 1.000000     O
    O   1.0     0.986295     0.657233     0.979871  Biso 1.000000     O
    O   1.0     0.444154     0.074605     0.036079  Biso 1.000000     O
    O   1.0     0.444157     0.574597     0.036079  Biso 1.000000     O
    O   1.0     0.944153     0.074605     0.036079  Biso 1.000000     O
    O   1.0     0.944156     0.574597     0.036078  Biso 1.000000     O
    O   1.0     0.076070     0.051721     0.937193  Biso 1.000000     O
    O   1.0     0.076075     0.551712     0.937193  Biso 1.000000     O
    O   1.0     0.576070     0.051721     0.937193  Biso 1.000000     O
    O   1.0     0.576074     0.551713     0.937193  Biso 1.000000     O
    O   1.0     0.185583     0.055323     0.902349  Biso 1.000000     O
    O   1.0     0.185587     0.555315     0.902349  Biso 1.000000     O
    O   1.0     0.685582     0.055323     0.902349  Biso 1.000000     O
    O   1.0     0.685586     0.555315     0.902349  Biso 1.000000     O
    O   1.0     0.344568     0.150117     0.746479  Biso 1.000000     O
    O   1.0     0.344572     0.650109     0.746478  Biso 1.000000     O
    O   1.0     0.844567     0.150116     0.746479  Biso 1.000000     O
    O   1.0     0.844571     0.650109     0.746478  Biso 1.000000     O
    O   1.0     0.274487     0.157306     0.866059  Biso 1.000000     O
    O   1.0     0.274490     0.657299     0.866059  Biso 1.000000     O
    O   1.0     0.774486     0.157306     0.866059  Biso 1.000000     O
    O   1.0     0.774490     0.657299     0.866059  Biso 1.000000     O
    O   1.0     0.239567     0.065361     0.714167  Biso 1.000000     O
    O   1.0     0.239571     0.565354     0.714167  Biso 1.000000     O
    O   1.0     0.739567     0.065361     0.714167  Biso 1.000000     O
    O   1.0     0.739571     0.565354     0.714167  Biso 1.000000     O
    O   1.0     0.250139     0.479914     0.639363  Biso 1.000000     O
    O   1.0     0.250143     0.979906     0.639363  Biso 1.000000     O
    O   1.0     0.750139     0.479914     0.639363  Biso 1.000000     O
    O   1.0     0.750142     0.979906     0.639362  Biso 1.000000     O
    O   1.0     0.374414     0.076508     0.610849  Biso 1.000000     O
    O   1.0     0.374418     0.576500     0.610849  Biso 1.000000     O
    O   1.0     0.874414     0.076508     0.610849  Biso 1.000000     O
    O   1.0     0.874418     0.576501     0.610847  Biso 1.000000     O
    O   1.0     0.353216     0.009806     0.500105  Biso 1.000000     O
    O   1.0     0.353219     0.509798     0.500104  Biso 1.000000     O
    O   1.0     0.853215     0.009806     0.500105  Biso 1.000000     O
    O   1.0     0.853219     0.509798     0.500104  Biso 1.000000     O
    O   1.0     0.206107     0.174846     0.691518  Biso 1.000000     O
    O   1.0     0.206111     0.674838     0.691518  Biso 1.000000     O
    O   1.0     0.706106     0.174846     0.691518  Biso 1.000000     O
    O   1.0     0.706110     0.674838     0.691518  Biso 1.000000     O
    O   1.0     0.196870     0.260416     0.620465  Biso 1.000000     O
    O   1.0     0.196874     0.760409     0.620465  Biso 1.000000     O
    O   1.0     0.696869     0.260416     0.620465  Biso 1.000000     O
    O   1.0     0.696873     0.760409     0.620465  Biso 1.000000     O
    O   1.0     0.236264     0.092772     0.520121  Biso 1.000000     O
    O   1.0     0.236267     0.592764     0.520121  Biso 1.000000     O
    O   1.0     0.736263     0.092772     0.520120  Biso 1.000000     O
    O   1.0     0.736267     0.592764     0.520121  Biso 1.000000     O
    O   1.0     0.194166     0.175468     0.463867  Biso 1.000000     O
    O   1.0     0.194170     0.675461     0.463867  Biso 1.000000     O
    O   1.0     0.694166     0.175468     0.463867  Biso 1.000000     O
    O   1.0     0.694169     0.675461     0.463868  Biso 1.000000     O
    O   1.0     0.326042     0.198206     0.562709  Biso 1.000000     O
    O   1.0     0.326046     0.698199     0.562709  Biso 1.000000     O
    O   1.0     0.826041     0.198206     0.562709  Biso 1.000000     O
    O   1.0     0.826045     0.698199     0.562709  Biso 1.000000     O
    O   1.0     0.435550     0.194629     0.597583  Biso 1.000000     O
    O   1.0     0.435554     0.694622     0.597583  Biso 1.000000     O
    O   1.0     0.935550     0.194629     0.597584  Biso 1.000000     O
    O   1.0     0.935554     0.694622     0.597583  Biso 1.000000     O
   Zn   1.0     0.464014     0.377450     0.129637  Biso 1.000000    Zn
   Zn   1.0     0.464018     0.877442     0.129637  Biso 1.000000    Zn
   Zn   1.0     0.964013     0.377450     0.129637  Biso 1.000000    Zn
   Zn   1.0     0.964017     0.877442     0.129637  Biso 1.000000    Zn
   Zn   1.0     0.058667     0.370274     0.309042  Biso 1.000000    Zn
   Zn   1.0     0.058671     0.870267     0.309041  Biso 1.000000    Zn
   Zn   1.0     0.558667     0.370274     0.309042  Biso 1.000000    Zn
   Zn   1.0     0.558671     0.870267     0.309041  Biso 1.000000    Zn
   Zn   1.0     0.214006     0.372557     0.370383  Biso 1.000000    Zn
   Zn   1.0     0.214010     0.872549     0.370382  Biso 1.000000    Zn
   Zn   1.0     0.714006     0.372557     0.370383  Biso 1.000000    Zn
   Zn   1.0     0.714009     0.872549     0.370382  Biso 1.000000    Zn
   Zn   1.0     0.308673     0.379733     0.190962  Biso 1.000000    Zn
   Zn   1.0     0.308677     0.879725     0.190962  Biso 1.000000    Zn
   Zn   1.0     0.808672     0.379733     0.190962  Biso 1.000000    Zn
   Zn   1.0     0.808676     0.879726     0.190961  Biso 1.000000    Zn
   Zn   1.0     0.035987     0.122544     0.870331  Biso 1.000000    Zn
   Zn   1.0     0.035991     0.622537     0.870331  Biso 1.000000    Zn
   Zn   1.0     0.535986     0.122544     0.870331  Biso 1.000000    Zn
   Zn   1.0     0.535990     0.622537     0.870331  Biso 1.000000    Zn
   Zn   1.0     0.441333     0.129719     0.690928  Biso 1.000000    Zn
   Zn   1.0     0.441337     0.629712     0.690928  Biso 1.000000    Zn
   Zn   1.0     0.941332     0.129719     0.690928  Biso 1.000000    Zn
   Zn   1.0     0.941336     0.629712     0.690928  Biso 1.000000    Zn
   Zn   1.0     0.285994     0.127437     0.629587  Biso 1.000000    Zn
   Zn   1.0     0.285998     0.627429     0.629587  Biso 1.000000    Zn
   Zn   1.0     0.785993     0.127437     0.629587  Biso 1.000000    Zn
   Zn   1.0     0.785997     0.627429     0.629587  Biso 1.000000    Zn
   Zn   1.0     0.191327     0.120261     0.809006  Biso 1.000000    Zn
   Zn   1.0     0.191331     0.620253     0.809007  Biso 1.000000    Zn
   Zn   1.0     0.691326     0.120261     0.809007  Biso 1.000000    Zn
   Zn   1.0     0.691330     0.620253     0.809006  Biso 1.000000    Zn
   Zn   1.0     0.000002     0.249996    -0.000001  Biso 1.000000    Zn
   Zn   1.0     0.000006     0.749989    -0.000000  Biso 1.000000    Zn
   Zn   1.0     0.500001     0.249996    -0.000000  Biso 1.000000    Zn
   Zn   1.0     0.500005     0.749989    -0.000000  Biso 1.000000    Zn
   Zn   1.0     0.249998     0.000001     0.499985  Biso 1.000000    Zn
   Zn   1.0     0.250002     0.499993     0.499985  Biso 1.000000    Zn
   Zn   1.0     0.749998     0.000001     0.499985  Biso 1.000000    Zn
   Zn   1.0     0.750001     0.499993     0.499985  Biso 1.000000    Zn
   Zn   1.0    -0.000000     0.000000     0.000000  Biso 1.000000    Zn
   Zn   1.0     0.000004     0.499992     0.000000  Biso 1.000000    Zn
   Zn   1.0     0.499999     0.000000     0.000000  Biso 1.000000    Zn
   Zn   1.0     0.500003     0.499992     0.000000  Biso 1.000000    Zn
   Zn   1.0     0.250000     0.249997     0.499985  Biso 1.000000    Zn
   Zn   1.0     0.250004     0.749989     0.499984  Biso 1.000000    Zn
   Zn   1.0     0.749999     0.249997     0.499984  Biso 1.000000    Zn
   Zn   1.0     0.750003     0.749989     0.499984  Biso 1.000000    Zn
