#======================================================================

# CRYSTAL DATA

#----------------------------------------------------------------------

data_VESTA_phase_1


_pd_phase_name                         MOF
_cell_length_a                         20.21600
_cell_length_b                         23.15000
_cell_length_c                         14.86600
_cell_angle_alpha                      91.11100
_cell_angle_beta                       89.98000
_cell_angle_gamma                      89.95300
_symmetry_space_group_name_H-M         "P 1"
_symmetry_Int_Tables_number            1

loop_
_symmetry_equiv_pos_as_xyz
   "x, y, z"

loop_
   _atom_site_label
   _atom_site_occupancy
   _atom_site_fract_x
   _atom_site_fract_y
   _atom_site_fract_z
   _atom_site_adp_type
   _atom_site_B_iso_or_equiv
   _atom_site_type_symbol
    H   1.0     0.378783     0.428320     0.371321  Biso 1.000000     H
    H   1.0     0.378783     0.928309     0.371322  Biso 1.000000     H
    H   1.0     0.878769     0.428294     0.371335  Biso 1.000000     H
    H   1.0     0.878774     0.928304     0.371339  Biso 1.000000     H
    H   1.0     0.025034     0.237222     0.270273  Biso 1.000000     H
    H   1.0     0.024992     0.737226     0.270281  Biso 1.000000     H
    H   1.0     0.525001     0.237228     0.270297  Biso 1.000000     H
    H   1.0     0.525041     0.737233     0.270267  Biso 1.000000     H
    H   1.0     0.304800     0.281020     0.044558  Biso 1.000000     H
    H   1.0     0.304806     0.781032     0.044532  Biso 1.000000     H
    H   1.0     0.804787     0.281016     0.044582  Biso 1.000000     H
    H   1.0     0.804791     0.781011     0.044627  Biso 1.000000     H
    H   1.0     0.102722     0.490821     0.233130  Biso 1.000000     H
    H   1.0     0.102710     0.990836     0.233148  Biso 1.000000     H
    H   1.0     0.602741     0.490809     0.233102  Biso 1.000000     H
    H   1.0     0.602747     0.990816     0.233098  Biso 1.000000     H
    H   1.0     0.080843     0.345299     0.919551  Biso 1.000000     H
    H   1.0     0.080799     0.845309     0.919489  Biso 1.000000     H
    H   1.0     0.580835     0.345297     0.919552  Biso 1.000000     H
    H   1.0     0.580859     0.845306     0.919569  Biso 1.000000     H
    H   1.0     0.354059     0.001438     0.012221  Biso 1.000000     H
    H   1.0     0.354063     0.501433     0.012202  Biso 1.000000     H
    H   1.0     0.854048     0.001419     0.012203  Biso 1.000000     H
    H   1.0     0.854052     0.501427     0.012193  Biso 1.000000     H
    H   1.0     0.128823     0.321854     0.128760  Biso 1.000000     H
    H   1.0     0.128824     0.821876     0.128757  Biso 1.000000     H
    H   1.0     0.628810     0.321859     0.128763  Biso 1.000000     H
    H   1.0     0.628819     0.821864     0.128759  Biso 1.000000     H
    H   1.0     0.275119     0.012773     0.229835  Biso 1.000000     H
    H   1.0     0.275055     0.512782     0.229805  Biso 1.000000     H
    H   1.0     0.775037     0.012775     0.229814  Biso 1.000000     H
    H   1.0     0.775124     0.512783     0.229844  Biso 1.000000     H
    H   1.0     0.054760     0.469050     0.456058  Biso 1.000000     H
    H   1.0     0.054767     0.969070     0.456051  Biso 1.000000     H
    H   1.0     0.554753     0.469065     0.456048  Biso 1.000000     H
    H   1.0     0.554756     0.969083     0.456012  Biso 1.000000     H
    H   1.0     0.352835     0.259168     0.266852  Biso 1.000000     H
    H   1.0     0.352827     0.759170     0.266839  Biso 1.000000     H
    H   1.0     0.852815     0.259165     0.266844  Biso 1.000000     H
    H   1.0     0.852838     0.759181     0.266865  Biso 1.000000     H
    H   1.0     0.331003     0.404630     0.580164  Biso 1.000000     H
    H   1.0     0.331008     0.904638     0.580166  Biso 1.000000     H
    H   1.0     0.830966     0.404627     0.580205  Biso 1.000000     H
    H   1.0     0.830988     0.904639     0.580181  Biso 1.000000     H
    H   1.0     0.104138     0.248501     0.487717  Biso 1.000000     H
    H   1.0     0.104145     0.748503     0.487704  Biso 1.000000     H
    H   1.0     0.604129     0.248495     0.487708  Biso 1.000000     H
    H   1.0     0.604133     0.748507     0.487708  Biso 1.000000     H
    H   1.0     0.121215     0.071725     0.628633  Biso 1.000000     H
    H   1.0     0.121214     0.571724     0.628624  Biso 1.000000     H
    H   1.0     0.621205     0.071716     0.628640  Biso 1.000000     H
    H   1.0     0.621213     0.571739     0.628634  Biso 1.000000     H
    H   1.0     0.474908     0.262791     0.729726  Biso 1.000000     H
    H   1.0     0.474955     0.762797     0.729701  Biso 1.000000     H
    H   1.0     0.974895     0.262788     0.729721  Biso 1.000000     H
    H   1.0     0.974906     0.762794     0.729700  Biso 1.000000     H
    H   1.0     0.195191     0.219006     0.955385  Biso 1.000000     H
    H   1.0     0.195196     0.719004     0.955366  Biso 1.000000     H
    H   1.0     0.695180     0.218981     0.955451  Biso 1.000000     H
    H   1.0     0.695186     0.718999     0.955428  Biso 1.000000     H
    H   1.0     0.397303     0.009177     0.766799  Biso 1.000000     H
    H   1.0     0.397264     0.509204     0.766846  Biso 1.000000     H
    H   1.0     0.897242     0.009198     0.766854  Biso 1.000000     H
    H   1.0     0.897265     0.509197     0.766835  Biso 1.000000     H
    H   1.0     0.419178     0.154707     0.080464  Biso 1.000000     H
    H   1.0     0.419153     0.654719     0.080424  Biso 1.000000     H
    H   1.0     0.919124     0.154711     0.080406  Biso 1.000000     H
    H   1.0     0.919132     0.654721     0.080398  Biso 1.000000     H
    H   1.0     0.145934     0.498589     0.987761  Biso 1.000000     H
    H   1.0     0.145939     0.998588     0.987754  Biso 1.000000     H
    H   1.0     0.645925     0.498586     0.987765  Biso 1.000000     H
    H   1.0     0.645928     0.998593     0.987760  Biso 1.000000     H
    H   1.0     0.371171     0.178145     0.871205  Biso 1.000000     H
    H   1.0     0.371175     0.678157     0.871203  Biso 1.000000     H
    H   1.0     0.871159     0.178146     0.871210  Biso 1.000000     H
    H   1.0     0.871164     0.678158     0.871207  Biso 1.000000     H
    H   1.0     0.224846     0.487232     0.770094  Biso 1.000000     H
    H   1.0     0.224878     0.987240     0.770106  Biso 1.000000     H
    H   1.0     0.724876     0.487236     0.770127  Biso 1.000000     H
    H   1.0     0.724869     0.987242     0.770114  Biso 1.000000     H
    H   1.0     0.445232     0.031003     0.543816  Biso 1.000000     H
    H   1.0     0.445233     0.530953     0.543914  Biso 1.000000     H
    H   1.0     0.945218     0.030942     0.543929  Biso 1.000000     H
    H   1.0     0.945222     0.530954     0.543922  Biso 1.000000     H
    H   1.0     0.147176     0.240851     0.733133  Biso 1.000000     H
    H   1.0     0.147144     0.740842     0.733094  Biso 1.000000     H
    H   1.0     0.647131     0.240837     0.733101  Biso 1.000000     H
    H   1.0     0.647154     0.740855     0.733119  Biso 1.000000     H
    H   1.0     0.168994     0.095387     0.419782  Biso 1.000000     H
    H   1.0     0.168997     0.595393     0.419783  Biso 1.000000     H
    H   1.0     0.668976     0.095383     0.419796  Biso 1.000000     H
    H   1.0     0.669005     0.595392     0.419767  Biso 1.000000     H
    H   1.0     0.395854     0.251514     0.512251  Biso 1.000000     H
    H   1.0     0.395860     0.751524     0.512254  Biso 1.000000     H
    H   1.0     0.895843     0.251509     0.512249  Biso 1.000000     H
    H   1.0     0.895845     0.751526     0.512261  Biso 1.000000     H
    C   1.0     0.419531     0.412159     0.328302  Biso 1.000000     C
    C   1.0     0.419535     0.912162     0.328298  Biso 1.000000     C
    C   1.0     0.919521     0.412151     0.328309  Biso 1.000000     C
    C   1.0     0.919526     0.912160     0.328313  Biso 1.000000     C
    C   1.0     0.011997     0.259749     0.207803  Biso 1.000000     C
    C   1.0     0.011982     0.759756     0.207804  Biso 1.000000     C
    C   1.0     0.511967     0.259751     0.207823  Biso 1.000000     C
    C   1.0     0.511988     0.759759     0.207803  Biso 1.000000     C
    C   1.0     0.358626     0.288451     0.051111  Biso 1.000000     C
    C   1.0     0.358631     0.788464     0.051088  Biso 1.000000     C
    C   1.0     0.858613     0.288447     0.051128  Biso 1.000000     C
    C   1.0     0.858618     0.788442     0.051163  Biso 1.000000     C
    C   1.0     0.066809     0.476131     0.181327  Biso 1.000000     C
    C   1.0     0.066813     0.976139     0.181331  Biso 1.000000     C
    C   1.0     0.566810     0.476127     0.181318  Biso 1.000000     C
    C   1.0     0.566817     0.976135     0.181313  Biso 1.000000     C
    C   1.0     0.050776     0.371800     0.966520  Biso 1.000000     C
    C   1.0     0.050747     0.871810     0.966477  Biso 1.000000     C
    C   1.0     0.550771     0.371798     0.966525  Biso 1.000000     C
    C   1.0     0.550780     0.871808     0.966525  Biso 1.000000     C
    C   1.0     0.363089     0.465040     0.057331  Biso 1.000000     C
    C   1.0     0.363095     0.965058     0.057340  Biso 1.000000     C
    C   1.0     0.863078     0.465039     0.057329  Biso 1.000000     C
    C   1.0     0.863083     0.965044     0.057332  Biso 1.000000     C
    C   1.0     0.169563     0.337944     0.171760  Biso 1.000000     C
    C   1.0     0.169567     0.837957     0.171760  Biso 1.000000     C
    C   1.0     0.669552     0.337945     0.171764  Biso 1.000000     C
    C   1.0     0.669559     0.837954     0.171760  Biso 1.000000     C
    C   1.0     0.261904     0.490265     0.292234  Biso 1.000000     C
    C   1.0     0.261928     0.990274     0.292245  Biso 1.000000     C
    C   1.0     0.761919     0.490265     0.292252  Biso 1.000000     C
    C   1.0     0.761913     0.990273     0.292249  Biso 1.000000     C
    C   1.0     0.108578     0.461504     0.449404  Biso 1.000000     C
    C   1.0     0.108584     0.961518     0.449403  Biso 1.000000     C
    C   1.0     0.608570     0.461510     0.449403  Biso 1.000000     C
    C   1.0     0.608573     0.961529     0.449375  Biso 1.000000     C
    C   1.0     0.316872     0.273861     0.318654  Biso 1.000000     C
    C   1.0     0.316874     0.773868     0.318650  Biso 1.000000     C
    C   1.0     0.816862     0.273861     0.318657  Biso 1.000000     C
    C   1.0     0.816877     0.773873     0.318669  Biso 1.000000     C
    C   1.0     0.300843     0.378166     0.533345  Biso 1.000000     C
    C   1.0     0.300847     0.878174     0.533348  Biso 1.000000     C
    C   1.0     0.800822     0.378164     0.533365  Biso 1.000000     C
    C   1.0     0.800829     0.878175     0.533361  Biso 1.000000     C
    C   1.0     0.113118     0.284910     0.442625  Biso 1.000000     C
    C   1.0     0.113123     0.784916     0.442618  Biso 1.000000     C
    C   1.0     0.613108     0.284907     0.442621  Biso 1.000000     C
    C   1.0     0.613112     0.784919     0.442622  Biso 1.000000     C
    C   1.0     0.080462     0.087865     0.671660  Biso 1.000000     C
    C   1.0     0.080463     0.587868     0.671651  Biso 1.000000     C
    C   1.0     0.580453     0.087862     0.671664  Biso 1.000000     C
    C   1.0     0.580458     0.587874     0.671662  Biso 1.000000     C
    C   1.0     0.487979     0.240262     0.792180  Biso 1.000000     C
    C   1.0     0.488003     0.740271     0.792166  Biso 1.000000     C
    C   1.0     0.987950     0.240261     0.792182  Biso 1.000000     C
    C   1.0     0.987967     0.740269     0.792162  Biso 1.000000     C
    C   1.0     0.141366     0.211571     0.948840  Biso 1.000000     C
    C   1.0     0.141370     0.711577     0.948817  Biso 1.000000     C
    C   1.0     0.641354     0.211553     0.948887  Biso 1.000000     C
    C   1.0     0.641360     0.711568     0.948872  Biso 1.000000     C
    C   1.0     0.433199     0.023874     0.818618  Biso 1.000000     C
    C   1.0     0.433182     0.523891     0.818642  Biso 1.000000     C
    C   1.0     0.933165     0.023883     0.818646  Biso 1.000000     C
    C   1.0     0.933180     0.523887     0.818634  Biso 1.000000     C
    C   1.0     0.449222     0.128209     0.033464  Biso 1.000000     C
    C   1.0     0.449218     0.628219     0.033450  Biso 1.000000     C
    C   1.0     0.949198     0.128210     0.033443  Biso 1.000000     C
    C   1.0     0.949203     0.628220     0.033433  Biso 1.000000     C
    C   1.0     0.136903     0.034967     0.942633  Biso 1.000000     C
    C   1.0     0.136908     0.534983     0.942635  Biso 1.000000     C
    C   1.0     0.636893     0.034969     0.942633  Biso 1.000000     C
    C   1.0     0.636898     0.534977     0.942635  Biso 1.000000     C
    C   1.0     0.330429     0.162061     0.828203  Biso 1.000000     C
    C   1.0     0.330434     0.662072     0.828201  Biso 1.000000     C
    C   1.0     0.830417     0.162061     0.828207  Biso 1.000000     C
    C   1.0     0.830421     0.662073     0.828205  Biso 1.000000     C
    C   1.0     0.238059     0.009744     0.707697  Biso 1.000000     C
    C   1.0     0.238049     0.509754     0.707689  Biso 1.000000     C
    C   1.0     0.738055     0.009745     0.707706  Biso 1.000000     C
    C   1.0     0.738056     0.509755     0.707711  Biso 1.000000     C
    C   1.0     0.391412     0.038525     0.550515  Biso 1.000000     C
    C   1.0     0.391416     0.538509     0.550559  Biso 1.000000     C
    C   1.0     0.891401     0.038499     0.550568  Biso 1.000000     C
    C   1.0     0.891405     0.538508     0.550565  Biso 1.000000     C
    C   1.0     0.183124     0.226151     0.681316  Biso 1.000000     C
    C   1.0     0.183106     0.726151     0.681290  Biso 1.000000     C
    C   1.0     0.683094     0.226144     0.681299  Biso 1.000000     C
    C   1.0     0.683099     0.726154     0.681298  Biso 1.000000     C
    C   1.0     0.199152     0.121849     0.466606  Biso 1.000000     C
    C   1.0     0.199157     0.621856     0.466603  Biso 1.000000     C
    C   1.0     0.699138     0.121846     0.466615  Biso 1.000000     C
    C   1.0     0.699158     0.621856     0.466594  Biso 1.000000     C
    C   1.0     0.386875     0.215103     0.557340  Biso 1.000000     C
    C   1.0     0.386879     0.715113     0.557343  Biso 1.000000     C
    C   1.0     0.886863     0.215100     0.557342  Biso 1.000000     C
    C   1.0     0.886866     0.715113     0.557347  Biso 1.000000     C
    O   1.0     0.405164     0.400217     0.245954  Biso 1.000000     O
    O   1.0     0.405168     0.900220     0.245950  Biso 1.000000     O
    O   1.0     0.905155     0.400216     0.245958  Biso 1.000000     O
    O   1.0     0.905162     0.900227     0.245962  Biso 1.000000     O
    O   1.0     0.475514     0.407568     0.364489  Biso 1.000000     O
    O   1.0     0.475517     0.907572     0.364486  Biso 1.000000     O
    O   1.0     0.975504     0.407562     0.364496  Biso 1.000000     O
    O   1.0     0.975509     0.907571     0.364502  Biso 1.000000     O
    O   1.0     0.010407     0.315265     0.213987  Biso 1.000000     O
    O   1.0     0.010414     0.815273     0.213984  Biso 1.000000     O
    O   1.0     0.510396     0.315268     0.213991  Biso 1.000000     O
    O   1.0     0.510399     0.815276     0.213985  Biso 1.000000     O
    O   1.0     0.000069     0.229961     0.138620  Biso 1.000000     O
    O   1.0     0.000075     0.729970     0.138612  Biso 1.000000     O
    O   1.0     0.500049     0.229960     0.138640  Biso 1.000000     O
    O   1.0     0.500058     0.729971     0.138621  Biso 1.000000     O
    O   1.0     0.375641     0.326195     0.111655  Biso 1.000000     O
    O   1.0     0.375642     0.826218     0.111618  Biso 1.000000     O
    O   1.0     0.875631     0.326191     0.111672  Biso 1.000000     O
    O   1.0     0.875640     0.826182     0.111711  Biso 1.000000     O
    O   1.0     0.396525     0.259862     0.000503  Biso 1.000000     O
    O   1.0     0.396532     0.759872     0.000488  Biso 1.000000     O
    O   1.0     0.896509     0.259862     0.000512  Biso 1.000000     O
    O   1.0     0.896509     0.759869     0.000523  Biso 1.000000     O
    O   1.0     0.043872     0.424898     0.191326  Biso 1.000000     O
    O   1.0     0.043874     0.924906     0.191331  Biso 1.000000     O
    O   1.0     0.543864     0.424897     0.191325  Biso 1.000000     O
    O   1.0     0.543868     0.924906     0.191322  Biso 1.000000     O
    O   1.0     0.053227     0.010396     0.119928  Biso 1.000000     O
    O   1.0     0.053240     0.510403     0.119919  Biso 1.000000     O
    O   1.0     0.553237     0.010391     0.119907  Biso 1.000000     O
    O   1.0     0.553239     0.510400     0.119911  Biso 1.000000     O
    O   1.0     0.013673     0.342773     0.020305  Biso 1.000000     O
    O   1.0     0.013675     0.842781     0.020299  Biso 1.000000     O
    O   1.0     0.513664     0.342772     0.020306  Biso 1.000000     O
    O   1.0     0.513672     0.842781     0.020304  Biso 1.000000     O
    O   1.0     0.055862     0.425457     0.963961  Biso 1.000000     O
    O   1.0     0.055862     0.925465     0.963956  Biso 1.000000     O
    O   1.0     0.555851     0.425455     0.963958  Biso 1.000000     O
    O   1.0     0.555860     0.925465     0.963960  Biso 1.000000     O
    O   1.0     0.423749     0.448219     0.062760  Biso 1.000000     O
    O   1.0     0.423754     0.948233     0.062760  Biso 1.000000     O
    O   1.0     0.923739     0.448217     0.062759  Biso 1.000000     O
    O   1.0     0.923743     0.948222     0.062759  Biso 1.000000     O
    O   1.0     0.314181     0.444674     0.097843  Biso 1.000000     O
    O   1.0     0.314187     0.944687     0.097845  Biso 1.000000     O
    O   1.0     0.814171     0.444673     0.097843  Biso 1.000000     O
    O   1.0     0.814176     0.944679     0.097845  Biso 1.000000     O
    O   1.0     0.155180     0.349866     0.254131  Biso 1.000000     O
    O   1.0     0.155184     0.849877     0.254131  Biso 1.000000     O
    O   1.0     0.655169     0.349868     0.254134  Biso 1.000000     O
    O   1.0     0.655175     0.849874     0.254131  Biso 1.000000     O
    O   1.0     0.225552     0.342494     0.135555  Biso 1.000000     O
    O   1.0     0.225555     0.842505     0.135555  Biso 1.000000     O
    O   1.0     0.725540     0.342496     0.135557  Biso 1.000000     O
    O   1.0     0.725548     0.842504     0.135556  Biso 1.000000     O
    O   1.0     0.260144     0.434758     0.285969  Biso 1.000000     O
    O   1.0     0.260158     0.934768     0.285973  Biso 1.000000     O
    O   1.0     0.760141     0.434759     0.285975  Biso 1.000000     O
    O   1.0     0.760145     0.934768     0.285976  Biso 1.000000     O
    O   1.0     0.249989     0.020052     0.361448  Biso 1.000000     O
    O   1.0     0.249986     0.520062     0.361440  Biso 1.000000     O
    O   1.0     0.749970     0.020053     0.361451  Biso 1.000000     O
    O   1.0     0.749991     0.520060     0.361457  Biso 1.000000     O
    O   1.0     0.125509     0.423519     0.389148  Biso 1.000000     O
    O   1.0     0.125514     0.923525     0.389157  Biso 1.000000     O
    O   1.0     0.625499     0.423515     0.389160  Biso 1.000000     O
    O   1.0     0.625506     0.923536     0.389130  Biso 1.000000     O
    O   1.0     0.146536     0.490205     0.499659  Biso 1.000000     O
    O   1.0     0.146543     0.990215     0.499662  Biso 1.000000     O
    O   1.0     0.646529     0.490207     0.499663  Biso 1.000000     O
    O   1.0     0.646529     0.990215     0.499655  Biso 1.000000     O
    O   1.0     0.293899     0.325122     0.308694  Biso 1.000000     O
    O   1.0     0.293903     0.825130     0.308691  Biso 1.000000     O
    O   1.0     0.793886     0.325121     0.308694  Biso 1.000000     O
    O   1.0     0.793890     0.825129     0.308696  Biso 1.000000     O
    O   1.0     0.303291     0.239586     0.380035  Biso 1.000000     O
    O   1.0     0.303293     0.739593     0.380031  Biso 1.000000     O
    O   1.0     0.803278     0.239585     0.380033  Biso 1.000000     O
    O   1.0     0.803290     0.739595     0.380043  Biso 1.000000     O
    O   1.0     0.263722     0.407231     0.479629  Biso 1.000000     O
    O   1.0     0.263729     0.907240     0.479630  Biso 1.000000     O
    O   1.0     0.763711     0.407230     0.479639  Biso 1.000000     O
    O   1.0     0.763716     0.907240     0.479636  Biso 1.000000     O
    O   1.0     0.305840     0.324502     0.536023  Biso 1.000000     O
    O   1.0     0.305844     0.824510     0.536026  Biso 1.000000     O
    O   1.0     0.805826     0.324499     0.536033  Biso 1.000000     O
    O   1.0     0.805833     0.824510     0.536030  Biso 1.000000     O
    O   1.0     0.173749     0.301738     0.437217  Biso 1.000000     O
    O   1.0     0.173753     0.801745     0.437212  Biso 1.000000     O
    O   1.0     0.673739     0.301736     0.437215  Biso 1.000000     O
    O   1.0     0.673743     0.801747     0.437215  Biso 1.000000     O
    O   1.0     0.064189     0.305286     0.402133  Biso 1.000000     O
    O   1.0     0.064193     0.805294     0.402130  Biso 1.000000     O
    O   1.0     0.564178     0.305286     0.402133  Biso 1.000000     O
    O   1.0     0.564183     0.805297     0.402131  Biso 1.000000     O
    O   1.0     0.094826     0.099798     0.754012  Biso 1.000000     O
    O   1.0     0.094828     0.599801     0.754002  Biso 1.000000     O
    O   1.0     0.594817     0.099800     0.754014  Biso 1.000000     O
    O   1.0     0.594822     0.599809     0.754014  Biso 1.000000     O
    O   1.0     0.024478     0.092450     0.635474  Biso 1.000000     O
    O   1.0     0.024480     0.592457     0.635463  Biso 1.000000     O
    O   1.0     0.524470     0.092450     0.635475  Biso 1.000000     O
    O   1.0     0.524475     0.592460     0.635475  Biso 1.000000     O
    O   1.0     0.489584     0.184746     0.785984  Biso 1.000000     O
    O   1.0     0.489592     0.684754     0.785981  Biso 1.000000     O
    O   1.0     0.989575     0.184746     0.785982  Biso 1.000000     O
    O   1.0     0.989571     0.684753     0.785975  Biso 1.000000     O
    O   1.0     0.499919     0.270047     0.861363  Biso 1.000000     O
    O   1.0     0.499935     0.770058     0.861348  Biso 1.000000     O
    O   1.0     0.999904     0.270048     0.861358  Biso 1.000000     O
    O   1.0     0.999897     0.770058     0.861344  Biso 1.000000     O
    O   1.0     0.124353     0.173807     0.888325  Biso 1.000000     O
    O   1.0     0.124351     0.673842     0.888259  Biso 1.000000     O
    O   1.0     0.624343     0.173802     0.888353  Biso 1.000000     O
    O   1.0     0.624348     0.673813     0.888343  Biso 1.000000     O
    O   1.0     0.103468     0.240149     0.999464  Biso 1.000000     O
    O   1.0     0.103475     0.740156     0.999443  Biso 1.000000     O
    O   1.0     0.603453     0.240146     0.999487  Biso 1.000000     O
    O   1.0     0.603460     0.740156     0.999479  Biso 1.000000     O
    O   1.0     0.456121     0.075114     0.808637  Biso 1.000000     O
    O   1.0     0.456124     0.575123     0.808640  Biso 1.000000     O
    O   1.0     0.956109     0.075113     0.808642  Biso 1.000000     O
    O   1.0     0.956113     0.575122     0.808639  Biso 1.000000     O
    O   1.0     0.446753     0.489617     0.880048  Biso 1.000000     O
    O   1.0     0.446771     0.989622     0.880033  Biso 1.000000     O
    O   1.0     0.946748     0.489615     0.880045  Biso 1.000000     O
    O   1.0     0.946743     0.989628     0.880054  Biso 1.000000     O
    O   1.0     0.486318     0.157238     0.979673  Biso 1.000000     O
    O   1.0     0.486321     0.657246     0.979666  Biso 1.000000     O
    O   1.0     0.986306     0.157238     0.979665  Biso 1.000000     O
    O   1.0     0.986315     0.657247     0.979658  Biso 1.000000     O
    O   1.0     0.444134     0.074552     0.036012  Biso 1.000000     O
    O   1.0     0.444135     0.574562     0.036010  Biso 1.000000     O
    O   1.0     0.944117     0.074553     0.036007  Biso 1.000000     O
    O   1.0     0.944125     0.574563     0.035999  Biso 1.000000     O
    O   1.0     0.076243     0.051789     0.937206  Biso 1.000000     O
    O   1.0     0.076248     0.551805     0.937207  Biso 1.000000     O
    O   1.0     0.576233     0.051790     0.937203  Biso 1.000000     O
    O   1.0     0.576238     0.551798     0.937205  Biso 1.000000     O
    O   1.0     0.185810     0.055334     0.902120  Biso 1.000000     O
    O   1.0     0.185815     0.555349     0.902120  Biso 1.000000     O
    O   1.0     0.685801     0.055334     0.902120  Biso 1.000000     O
    O   1.0     0.685806     0.555343     0.902122  Biso 1.000000     O
    O   1.0     0.344813     0.150141     0.745831  Biso 1.000000     O
    O   1.0     0.344818     0.650150     0.745831  Biso 1.000000     O
    O   1.0     0.844800     0.150144     0.745835  Biso 1.000000     O
    O   1.0     0.844805     0.650151     0.745834  Biso 1.000000     O
    O   1.0     0.274440     0.157514     0.864406  Biso 1.000000     O
    O   1.0     0.274445     0.657522     0.864405  Biso 1.000000     O
    O   1.0     0.774428     0.157516     0.864411  Biso 1.000000     O
    O   1.0     0.774434     0.657524     0.864411  Biso 1.000000     O
    O   1.0     0.239839     0.065249     0.713983  Biso 1.000000     O
    O   1.0     0.239842     0.565258     0.713981  Biso 1.000000     O
    O   1.0     0.739829     0.065251     0.713988  Biso 1.000000     O
    O   1.0     0.739833     0.565261     0.713989  Biso 1.000000     O
    O   1.0     0.249995     0.479961     0.638486  Biso 1.000000     O
    O   1.0     0.250005     0.979970     0.638491  Biso 1.000000     O
    O   1.0     0.749991     0.479960     0.638508  Biso 1.000000     O
    O   1.0     0.749990     0.979970     0.638497  Biso 1.000000     O
    O   1.0     0.374486     0.076513     0.610770  Biso 1.000000     O
    O   1.0     0.374489     0.576511     0.610792  Biso 1.000000     O
    O   1.0     0.874472     0.076494     0.610812  Biso 1.000000     O
    O   1.0     0.874475     0.576503     0.610809  Biso 1.000000     O
    O   1.0     0.353450     0.009813     0.500282  Biso 1.000000     O
    O   1.0     0.353457     0.509815     0.500295  Biso 1.000000     O
    O   1.0     0.853443     0.009805     0.500303  Biso 1.000000     O
    O   1.0     0.853447     0.509813     0.500303  Biso 1.000000     O
    O   1.0     0.206096     0.174890     0.691275  Biso 1.000000     O
    O   1.0     0.206102     0.674899     0.691271  Biso 1.000000     O
    O   1.0     0.706084     0.174890     0.691276  Biso 1.000000     O
    O   1.0     0.706091     0.674901     0.691278  Biso 1.000000     O
    O   1.0     0.196708     0.260428     0.619938  Biso 1.000000     O
    O   1.0     0.196698     0.760432     0.619923  Biso 1.000000     O
    O   1.0     0.696685     0.260423     0.619929  Biso 1.000000     O
    O   1.0     0.696693     0.760435     0.619931  Biso 1.000000     O
    O   1.0     0.236267     0.092782     0.520326  Biso 1.000000     O
    O   1.0     0.236273     0.592789     0.520324  Biso 1.000000     O
    O   1.0     0.736258     0.092780     0.520330  Biso 1.000000     O
    O   1.0     0.736263     0.592790     0.520328  Biso 1.000000     O
    O   1.0     0.194150     0.175513     0.463939  Biso 1.000000     O
    O   1.0     0.194156     0.675520     0.463936  Biso 1.000000     O
    O   1.0     0.694141     0.175510     0.463941  Biso 1.000000     O
    O   1.0     0.694147     0.675520     0.463934  Biso 1.000000     O
    O   1.0     0.326243     0.198278     0.562754  Biso 1.000000     O
    O   1.0     0.326247     0.698287     0.562753  Biso 1.000000     O
    O   1.0     0.826231     0.198274     0.562751  Biso 1.000000     O
    O   1.0     0.826235     0.698285     0.562755  Biso 1.000000     O
    O   1.0     0.435804     0.194729     0.597837  Biso 1.000000     O
    O   1.0     0.435808     0.694735     0.597836  Biso 1.000000     O
    O   1.0     0.935792     0.194724     0.597835  Biso 1.000000     O
    O   1.0     0.935796     0.694734     0.597834  Biso 1.000000     O
   Zn   1.0     0.464041     0.377449     0.129627  Biso 1.000000    Zn
   Zn   1.0     0.464046     0.877458     0.129620  Biso 1.000000    Zn
   Zn   1.0     0.964031     0.377448     0.129627  Biso 1.000000    Zn
   Zn   1.0     0.964036     0.877456     0.129629  Biso 1.000000    Zn
   Zn   1.0     0.058693     0.370202     0.308850  Biso 1.000000    Zn
   Zn   1.0     0.058697     0.870211     0.308852  Biso 1.000000    Zn
   Zn   1.0     0.558682     0.370203     0.308851  Biso 1.000000    Zn
   Zn   1.0     0.558688     0.870212     0.308847  Biso 1.000000    Zn
   Zn   1.0     0.214024     0.372554     0.370481  Biso 1.000000    Zn
   Zn   1.0     0.214029     0.872564     0.370481  Biso 1.000000    Zn
   Zn   1.0     0.714014     0.372555     0.370484  Biso 1.000000    Zn
   Zn   1.0     0.714019     0.872563     0.370483  Biso 1.000000    Zn
   Zn   1.0     0.308685     0.379798     0.191217  Biso 1.000000    Zn
   Zn   1.0     0.308689     0.879807     0.191214  Biso 1.000000    Zn
   Zn   1.0     0.808675     0.379798     0.191219  Biso 1.000000    Zn
   Zn   1.0     0.808681     0.879806     0.191222  Biso 1.000000    Zn
   Zn   1.0     0.035951     0.122562     0.870344  Biso 1.000000    Zn
   Zn   1.0     0.035956     0.622572     0.870334  Biso 1.000000    Zn
   Zn   1.0     0.535939     0.122563     0.870346  Biso 1.000000    Zn
   Zn   1.0     0.535945     0.622571     0.870345  Biso 1.000000    Zn
   Zn   1.0     0.441300     0.129810     0.691115  Biso 1.000000    Zn
   Zn   1.0     0.441304     0.629817     0.691117  Biso 1.000000    Zn
   Zn   1.0     0.941289     0.129808     0.691118  Biso 1.000000    Zn
   Zn   1.0     0.941293     0.629816     0.691114  Biso 1.000000    Zn
   Zn   1.0     0.285966     0.127457     0.629481  Biso 1.000000    Zn
   Zn   1.0     0.285972     0.627465     0.629479  Biso 1.000000    Zn
   Zn   1.0     0.785957     0.127456     0.629484  Biso 1.000000    Zn
   Zn   1.0     0.785961     0.627465     0.629483  Biso 1.000000    Zn
   Zn   1.0     0.191307     0.120211     0.808748  Biso 1.000000    Zn
   Zn   1.0     0.191310     0.620222     0.808743  Biso 1.000000    Zn
   Zn   1.0     0.691296     0.120212     0.808752  Biso 1.000000    Zn
   Zn   1.0     0.691301     0.620221     0.808751  Biso 1.000000    Zn
   Zn   1.0     0.000002     0.250004     0.000003  Biso 1.000000    Zn
   Zn   1.0     0.000006     0.750014    -0.000002  Biso 1.000000    Zn
   Zn   1.0     0.499992     0.250004     0.000009  Biso 1.000000    Zn
   Zn   1.0     0.499998     0.750013     0.000000  Biso 1.000000    Zn
   Zn   1.0     0.249993     0.000002     0.499978  Biso 1.000000    Zn
   Zn   1.0     0.249998     0.500011     0.499974  Biso 1.000000    Zn
   Zn   1.0     0.749983     0.000001     0.499978  Biso 1.000000    Zn
   Zn   1.0     0.749988     0.500010     0.499983  Biso 1.000000    Zn
   Zn   1.0     0.000000    -0.000000     0.000001  Biso 1.000000    Zn
   Zn   1.0     0.000005     0.500009    -0.000001  Biso 1.000000    Zn
   Zn   1.0     0.499990    -0.000001    -0.000003  Biso 1.000000    Zn
   Zn   1.0     0.499995     0.500009    -0.000000  Biso 1.000000    Zn
   Zn   1.0     0.249996     0.250006     0.499983  Biso 1.000000    Zn
   Zn   1.0     0.250001     0.750015     0.499982  Biso 1.000000    Zn
   Zn   1.0     0.749985     0.250005     0.499983  Biso 1.000000    Zn
   Zn   1.0     0.749990     0.750015     0.499984  Biso 1.000000    Zn
