#======================================================================

# CRYSTAL DATA

#----------------------------------------------------------------------

data_VESTA_phase_1


_pd_phase_name                         MOF
_cell_length_a                         17.69800
_cell_length_b                         23.27600
_cell_length_c                         13.50400
_cell_angle_alpha                      87.29000
_cell_angle_beta                       82.85600
_cell_angle_gamma                      67.65600
_symmetry_space_group_name_H-M         "P 1"
_symmetry_Int_Tables_number            1

loop_
_symmetry_equiv_pos_as_xyz
   "x, y, z"

loop_
   _atom_site_label
   _atom_site_occupancy
   _atom_site_fract_x
   _atom_site_fract_y
   _atom_site_fract_z
   _atom_site_adp_type
   _atom_site_B_iso_or_equiv
   _atom_site_type_symbol
    H   1.0     0.252765     0.157182     0.220364  Biso 1.000000     H
    H   1.0     0.256993     0.647694     0.220362  Biso 1.000000     H
    H   1.0     0.749135     0.157183     0.220363  Biso 1.000000     H
    H   1.0     0.753361     0.647693     0.220364  Biso 1.000000     H
    H   1.0     0.193884     0.099884     0.121769  Biso 1.000000     H
    H   1.0     0.198111     0.590396     0.121769  Biso 1.000000     H
    H   1.0     0.690254     0.099885     0.121768  Biso 1.000000     H
    H   1.0     0.694481     0.590396     0.121767  Biso 1.000000     H
    H   1.0     0.445955     0.457393     0.045834  Biso 1.000000     H
    H   1.0     0.450182     0.947905     0.045831  Biso 1.000000     H
    H   1.0     0.942326     0.457395     0.045830  Biso 1.000000     H
    H   1.0     0.946551     0.947905     0.045834  Biso 1.000000     H
    H   1.0     0.490816     0.032600     0.143473  Biso 1.000000     H
    H   1.0     0.495043     0.523110     0.143476  Biso 1.000000     H
    H   1.0     0.987186     0.032600     0.143476  Biso 1.000000     H
    H   1.0     0.991412     0.523113     0.143473  Biso 1.000000     H
    H   1.0     0.322370     0.438979     0.000000  Biso 1.000000     H
    H   1.0     0.326597     0.929491     0.000000  Biso 1.000000     H
    H   1.0     0.818742     0.438983     0.000000  Biso 1.000000     H
    H   1.0     0.822966     0.929492     0.000000  Biso 1.000000     H
    H   1.0     0.057081     0.189773     0.989521  Biso 1.000000     H
    H   1.0     0.061311     0.680287     0.989524  Biso 1.000000     H
    H   1.0     0.553452     0.189774     0.989522  Biso 1.000000     H
    H   1.0     0.557672     0.680283     0.989515  Biso 1.000000     H
    H   1.0     0.078234     0.156837     0.299376  Biso 1.000000     H
    H   1.0     0.082463     0.647346     0.299370  Biso 1.000000     H
    H   1.0     0.574603     0.156837     0.299371  Biso 1.000000     H
    H   1.0     0.578831     0.647348     0.299372  Biso 1.000000     H
    H   1.0     0.194179     0.099407     0.398189  Biso 1.000000     H
    H   1.0     0.198406     0.589917     0.398186  Biso 1.000000     H
    H   1.0     0.690548     0.099407     0.398184  Biso 1.000000     H
    H   1.0     0.694776     0.589918     0.398184  Biso 1.000000     H
    H   1.0     0.082886     0.457321     0.474117  Biso 1.000000     H
    H   1.0     0.087114     0.947832     0.474116  Biso 1.000000     H
    H   1.0     0.579257     0.457322     0.474117  Biso 1.000000     H
    H   1.0     0.583482     0.947834     0.474117  Biso 1.000000     H
    H   1.0     0.460432     0.032689     0.376254  Biso 1.000000     H
    H   1.0     0.464660     0.523200     0.376254  Biso 1.000000     H
    H   1.0     0.956803     0.032688     0.376253  Biso 1.000000     H
    H   1.0     0.961029     0.523199     0.376251  Biso 1.000000     H
    H   1.0     0.206245     0.439444     0.538976  Biso 1.000000     H
    H   1.0     0.210476     0.929952     0.538969  Biso 1.000000     H
    H   1.0     0.702618     0.439443     0.538970  Biso 1.000000     H
    H   1.0     0.706842     0.929956     0.538974  Biso 1.000000     H
    H   1.0     0.223122     0.190228     0.571111  Biso 1.000000     H
    H   1.0     0.227347     0.680740     0.571107  Biso 1.000000     H
    H   1.0     0.719492     0.190229     0.571109  Biso 1.000000     H
    H   1.0     0.723731     0.680737     0.571119  Biso 1.000000     H
    H   1.0     0.229948     0.332627     0.819925  Biso 1.000000     H
    H   1.0     0.234175     0.823138     0.819923  Biso 1.000000     H
    H   1.0     0.726318     0.332628     0.819921  Biso 1.000000     H
    H   1.0     0.730544     0.823139     0.819923  Biso 1.000000     H
    H   1.0     0.288830     0.389922     0.918525  Biso 1.000000     H
    H   1.0     0.293056     0.880433     0.918524  Biso 1.000000     H
    H   1.0     0.785199     0.389922     0.918524  Biso 1.000000     H
    H   1.0     0.789426     0.880435     0.918522  Biso 1.000000     H
    H   1.0     0.036761     0.032418     0.994451  Biso 1.000000     H
    H   1.0     0.040988     0.522930     0.994449  Biso 1.000000     H
    H   1.0     0.533130     0.032419     0.994449  Biso 1.000000     H
    H   1.0     0.537357     0.522929     0.994453  Biso 1.000000     H
    H   1.0    -0.008100     0.457215     0.896802  Biso 1.000000     H
    H   1.0    -0.003874     0.947725     0.896804  Biso 1.000000     H
    H   1.0     0.488268     0.457215     0.896805  Biso 1.000000     H
    H   1.0     0.492495     0.947726     0.896804  Biso 1.000000     H
    H   1.0     0.160345     0.050828     0.018790  Biso 1.000000     H
    H   1.0     0.164572     0.541341     0.018787  Biso 1.000000     H
    H   1.0     0.656714     0.050830     0.018787  Biso 1.000000     H
    H   1.0     0.660940     0.541337     0.018796  Biso 1.000000     H
    H   1.0     0.425635     0.300047     0.050772  Biso 1.000000     H
    H   1.0     0.429863     0.790559     0.050773  Biso 1.000000     H
    H   1.0     0.922004     0.300047     0.050771  Biso 1.000000     H
    H   1.0     0.926226     0.790557     0.050766  Biso 1.000000     H
    H   1.0     0.404482     0.332974     0.740911  Biso 1.000000     H
    H   1.0     0.408713     0.823483     0.740908  Biso 1.000000     H
    H   1.0     0.900853     0.332974     0.740908  Biso 1.000000     H
    H   1.0     0.905079     0.823485     0.740907  Biso 1.000000     H
    H   1.0     0.288535     0.390406     0.642102  Biso 1.000000     H
    H   1.0     0.292762     0.880917     0.642106  Biso 1.000000     H
    H   1.0     0.784905     0.390407     0.642102  Biso 1.000000     H
    H   1.0     0.789133     0.880917     0.642098  Biso 1.000000     H
    H   1.0     0.399831     0.032488     0.566167  Biso 1.000000     H
    H   1.0     0.404058     0.522999     0.566164  Biso 1.000000     H
    H   1.0     0.896202     0.032489     0.566165  Biso 1.000000     H
    H   1.0     0.900428     0.523000     0.566167  Biso 1.000000     H
    H   1.0     0.022290     0.457119     0.664025  Biso 1.000000     H
    H   1.0     0.026515     0.947631     0.664025  Biso 1.000000     H
    H   1.0     0.518658     0.457119     0.664024  Biso 1.000000     H
    H   1.0     0.522887     0.947628     0.664021  Biso 1.000000     H
    H   1.0     0.276467     0.050372     0.501324  Biso 1.000000     H
    H   1.0     0.280699     0.540879     0.501312  Biso 1.000000     H
    H   1.0     0.772843     0.050369     0.501310  Biso 1.000000     H
    H   1.0     0.777066     0.540882     0.501318  Biso 1.000000     H
    H   1.0     0.259618     0.299567     0.469181  Biso 1.000000     H
    H   1.0     0.263845     0.790078     0.469182  Biso 1.000000     H
    H   1.0     0.755988     0.299567     0.469182  Biso 1.000000     H
    H   1.0     0.760225     0.790076     0.469187  Biso 1.000000     H
    C   1.0     0.292258     0.115057     0.179480  Biso 1.000000     C
    C   1.0     0.296485     0.605567     0.179482  Biso 1.000000     C
    C   1.0     0.788628     0.115057     0.179481  Biso 1.000000     C
    C   1.0     0.792854     0.605568     0.179481  Biso 1.000000     C
    C   1.0     0.260119     0.082852     0.124656  Biso 1.000000     C
    C   1.0     0.264347     0.573365     0.124654  Biso 1.000000     C
    C   1.0     0.756489     0.082854     0.124654  Biso 1.000000     C
    C   1.0     0.760716     0.573366     0.124651  Biso 1.000000     C
    C   1.0     0.313716     0.028409     0.073350  Biso 1.000000     C
    C   1.0     0.317942     0.518920     0.073351  Biso 1.000000     C
    C   1.0     0.810085     0.028410     0.073351  Biso 1.000000     C
    C   1.0     0.814312     0.518918     0.073356  Biso 1.000000     C
    C   1.0     0.398168     0.009220     0.082903  Biso 1.000000     C
    C   1.0     0.402395     0.499731     0.082904  Biso 1.000000     C
    C   1.0     0.894538     0.009221     0.082904  Biso 1.000000     C
    C   1.0     0.898765     0.499735     0.082897  Biso 1.000000     C
    C   1.0     0.425681     0.044701     0.137805  Biso 1.000000     C
    C   1.0     0.429908     0.535211     0.137809  Biso 1.000000     C
    C   1.0     0.922050     0.044701     0.137808  Biso 1.000000     C
    C   1.0     0.926277     0.535213     0.137806  Biso 1.000000     C
    C   1.0     0.291357     0.482362     0.011257  Biso 1.000000     C
    C   1.0     0.295585     0.972874     0.011253  Biso 1.000000     C
    C   1.0     0.787730     0.482367     0.011243  Biso 1.000000     C
    C   1.0     0.791954     0.972875     0.011253  Biso 1.000000     C
    C   1.0     0.007580     0.177046     0.091327  Biso 1.000000     C
    C   1.0     0.011812     0.667558     0.091332  Biso 1.000000     C
    C   1.0     0.503945     0.177045     0.091324  Biso 1.000000     C
    C   1.0     0.508172     0.667556     0.091322  Biso 1.000000     C
    C   1.0     0.024332     0.214905     0.005614  Biso 1.000000     C
    C   1.0     0.028550     0.705415     0.005607  Biso 1.000000     C
    C   1.0     0.520706     0.214907     0.005619  Biso 1.000000     C
    C   1.0     0.524936     0.705419     0.005621  Biso 1.000000     C
    C   1.0     0.080661     0.114774     0.340313  Biso 1.000000     C
    C   1.0     0.084890     0.605283     0.340305  Biso 1.000000     C
    C   1.0     0.577029     0.114774     0.340309  Biso 1.000000     C
    C   1.0     0.581257     0.605286     0.340311  Biso 1.000000     C
    C   1.0     0.144875     0.082490     0.395260  Biso 1.000000     C
    C   1.0     0.149099     0.573003     0.395264  Biso 1.000000     C
    C   1.0     0.641242     0.082492     0.395260  Biso 1.000000     C
    C   1.0     0.645473     0.573001     0.395256  Biso 1.000000     C
    C   1.0     0.145433     0.028142     0.446643  Biso 1.000000     C
    C   1.0     0.149666     0.518647     0.446629  Biso 1.000000     C
    C   1.0     0.641807     0.028139     0.446632  Biso 1.000000     C
    C   1.0     0.646030     0.518653     0.446641  Biso 1.000000     C
    C   1.0     0.080073     0.009086     0.436995  Biso 1.000000     C
    C   1.0     0.084294     0.499600     0.437003  Biso 1.000000     C
    C   1.0     0.576439     0.009089     0.437000  Biso 1.000000     C
    C   1.0     0.580669     0.499597     0.436994  Biso 1.000000     C
    C   1.0     0.017208     0.044639     0.381971  Biso 1.000000     C
    C   1.0     0.021436     0.535148     0.381966  Biso 1.000000     C
    C   1.0     0.513576     0.044640     0.381971  Biso 1.000000     C
    C   1.0     0.517803     0.535152     0.381973  Biso 1.000000     C
    C   1.0     0.212656     0.482058     0.508877  Biso 1.000000     C
    C   1.0     0.216891     0.972564     0.508864  Biso 1.000000     C
    C   1.0     0.709034     0.482055     0.508864  Biso 1.000000     C
    C   1.0     0.713253     0.972570     0.508874  Biso 1.000000     C
    C   1.0     0.303547     0.176693     0.428628  Biso 1.000000     C
    C   1.0     0.307772     0.667204     0.428624  Biso 1.000000     C
    C   1.0     0.799914     0.176694     0.428624  Biso 1.000000     C
    C   1.0     0.804153     0.667203     0.428634  Biso 1.000000     C
    C   1.0     0.249292     0.214579     0.514525  Biso 1.000000     C
    C   1.0     0.253525     0.705088     0.514528  Biso 1.000000     C
    C   1.0     0.745669     0.214578     0.514529  Biso 1.000000     C
    C   1.0     0.749895     0.705089     0.514529  Biso 1.000000     C
    C   1.0     0.190456     0.374752     0.860809  Biso 1.000000     C
    C   1.0     0.194683     0.865264     0.860806  Biso 1.000000     C
    C   1.0     0.686825     0.374754     0.860804  Biso 1.000000     C
    C   1.0     0.691052     0.865264     0.860807  Biso 1.000000     C
    C   1.0     0.222595     0.406957     0.915630  Biso 1.000000     C
    C   1.0     0.226821     0.897466     0.915634  Biso 1.000000     C
    C   1.0     0.718964     0.406954     0.915638  Biso 1.000000     C
    C   1.0     0.723191     0.897468     0.915632  Biso 1.000000     C
    C   1.0     0.168998     0.461398     0.966943  Biso 1.000000     C
    C   1.0     0.173226     0.951911     0.966938  Biso 1.000000     C
    C   1.0     0.665370     0.461402     0.966931  Biso 1.000000     C
    C   1.0     0.669595     0.951911     0.966938  Biso 1.000000     C
    C   1.0     0.084548     0.480593     0.957374  Biso 1.000000     C
    C   1.0     0.088774     0.971102     0.957380  Biso 1.000000     C
    C   1.0     0.580916     0.480588     0.957387  Biso 1.000000     C
    C   1.0     0.585143     0.971104     0.957378  Biso 1.000000     C
    C   1.0     0.057035     0.445111     0.902477  Biso 1.000000     C
    C   1.0     0.061261     0.935623     0.902475  Biso 1.000000     C
    C   1.0     0.553404     0.445113     0.902474  Biso 1.000000     C
    C   1.0     0.557630     0.935623     0.902476  Biso 1.000000     C
    C   1.0     0.191357     0.007445     0.000000  Biso 1.000000     C
    C   1.0     0.195584     0.497959     0.000000  Biso 1.000000     C
    C   1.0     0.687727     0.007447     0.000000  Biso 1.000000     C
    C   1.0     0.691952     0.497952     0.000000  Biso 1.000000     C
    C   1.0     0.475134     0.312772     0.948962  Biso 1.000000     C
    C   1.0     0.479377     0.803286     0.948974  Biso 1.000000     C
    C   1.0     0.971506     0.312772     0.948963  Biso 1.000000     C
    C   1.0     0.975725     0.803283     0.948956  Biso 1.000000     C
    C   1.0     0.458384     0.274914     0.000000  Biso 1.000000     C
    C   1.0     0.462593     0.765421     0.000000  Biso 1.000000     C
    C   1.0     0.954753     0.274914     0.000000  Biso 1.000000     C
    C   1.0     0.958986     0.765428     0.000000  Biso 1.000000     C
    C   1.0     0.402056     0.375036     0.699973  Biso 1.000000     C
    C   1.0     0.406286     0.865545     0.699969  Biso 1.000000     C
    C   1.0     0.898426     0.375036     0.699972  Biso 1.000000     C
    C   1.0     0.902652     0.865549     0.699973  Biso 1.000000     C
    C   1.0     0.337842     0.407320     0.645025  Biso 1.000000     C
    C   1.0     0.342066     0.897833     0.645032  Biso 1.000000     C
    C   1.0     0.834211     0.407321     0.645026  Biso 1.000000     C
    C   1.0     0.838441     0.897830     0.645018  Biso 1.000000     C
    C   1.0     0.337279     0.461673     0.593653  Biso 1.000000     C
    C   1.0     0.341511     0.952180     0.593645  Biso 1.000000     C
    C   1.0     0.833652     0.461672     0.593648  Biso 1.000000     C
    C   1.0     0.837874     0.952186     0.593655  Biso 1.000000     C
    C   1.0     0.402649     0.480722     0.603282  Biso 1.000000     C
    C   1.0     0.406873     0.971235     0.603291  Biso 1.000000     C
    C   1.0     0.899018     0.480723     0.603286  Biso 1.000000     C
    C   1.0     0.903247     0.971232     0.603278  Biso 1.000000     C
    C   1.0     0.465512     0.445169     0.658308  Biso 1.000000     C
    C   1.0     0.469742     0.935678     0.658304  Biso 1.000000     C
    C   1.0     0.961883     0.445169     0.658309  Biso 1.000000     C
    C   1.0     0.966107     0.935682     0.658310  Biso 1.000000     C
    C   1.0     0.270049     0.007760     0.531431  Biso 1.000000     C
    C   1.0     0.274285     0.498265     0.531412  Biso 1.000000     C
    C   1.0     0.766430     0.007754     0.531409  Biso 1.000000     C
    C   1.0     0.770649     0.498270     0.531423  Biso 1.000000     C
    C   1.0     0.179196     0.313109     0.611664  Biso 1.000000     C
    C   1.0     0.183428     0.803619     0.611668  Biso 1.000000     C
    C   1.0     0.675567     0.313109     0.611665  Biso 1.000000     C
    C   1.0     0.679796     0.803620     0.611664  Biso 1.000000     C
    C   1.0     0.233446     0.275218     0.525768  Biso 1.000000     C
    C   1.0     0.237663     0.765731     0.525761  Biso 1.000000     C
    C   1.0     0.729810     0.275220     0.525764  Biso 1.000000     C
    C   1.0     0.734061     0.765726     0.525780  Biso 1.000000     C
    N   1.0     0.373834     0.097119     0.185653  Biso 1.000000     N
    N   1.0     0.378061     0.587630     0.185652  Biso 1.000000     N
    N   1.0     0.870204     0.097119     0.185653  Biso 1.000000     N
    N   1.0     0.874430     0.587631     0.185652  Biso 1.000000     N
    N   1.0     0.016906     0.096984     0.334087  Biso 1.000000     N
    N   1.0     0.021133     0.587494     0.334085  Biso 1.000000     N
    N   1.0     0.513274     0.096984     0.334086  Biso 1.000000     N
    N   1.0     0.517503     0.587495     0.334084  Biso 1.000000     N
    N   1.0     0.108881     0.392694     0.854627  Biso 1.000000     N
    N   1.0     0.113107     0.883204     0.854628  Biso 1.000000     N
    N   1.0     0.605249     0.392694     0.854629  Biso 1.000000     N
    N   1.0     0.609476     0.883206     0.854628  Biso 1.000000     N
    N   1.0     0.465813     0.392825     0.706193  Biso 1.000000     N
    N   1.0     0.470043     0.883334     0.706191  Biso 1.000000     N
    N   1.0     0.962184     0.392824     0.706192  Biso 1.000000     N
    N   1.0     0.966410     0.883336     0.706190  Biso 1.000000     N
    O   1.0     0.446550     0.206441     0.161304  Biso 1.000000     O
    O   1.0     0.450775     0.696951     0.161301  Biso 1.000000     O
    O   1.0     0.942918     0.206440     0.161302  Biso 1.000000     O
    O   1.0     0.947142     0.696952     0.161300  Biso 1.000000     O
    O   1.0     0.048787     0.119451     0.091522  Biso 1.000000     O
    O   1.0     0.053013     0.609962     0.091520  Biso 1.000000     O
    O   1.0     0.545158     0.119451     0.091524  Biso 1.000000     O
    O   1.0     0.549386     0.609963     0.091524  Biso 1.000000     O
    O   1.0     0.330997     0.206176     0.358250  Biso 1.000000     O
    O   1.0     0.335225     0.696688     0.358249  Biso 1.000000     O
    O   1.0     0.827369     0.206177     0.358251  Biso 1.000000     O
    O   1.0     0.831602     0.696687     0.358257  Biso 1.000000     O
    O   1.0     0.320203     0.119061     0.428673  Biso 1.000000     O
    O   1.0     0.324435     0.609572     0.428674  Biso 1.000000     O
    O   1.0     0.816579     0.119061     0.428674  Biso 1.000000     O
    O   1.0     0.820804     0.609572     0.428673  Biso 1.000000     O
    O   1.0     0.036171     0.283375     0.878992  Biso 1.000000     O
    O   1.0     0.040399     0.773887     0.878993  Biso 1.000000     O
    O   1.0     0.532542     0.283376     0.878995  Biso 1.000000     O
    O   1.0     0.536762     0.773886     0.878987  Biso 1.000000     O
    O   1.0     0.433920     0.370366     0.948756  Biso 1.000000     O
    O   1.0     0.438143     0.860876     0.948750  Biso 1.000000     O
    O   1.0     0.930290     0.370366     0.948755  Biso 1.000000     O
    O   1.0     0.934518     0.860878     0.948757  Biso 1.000000     O
    O   1.0     0.151723     0.283634     0.682034  Biso 1.000000     O
    O   1.0     0.155945     0.774145     0.682030  Biso 1.000000     O
    O   1.0     0.648089     0.283634     0.682032  Biso 1.000000     O
    O   1.0     0.652330     0.774145     0.682042  Biso 1.000000     O
    O   1.0     0.162563     0.370737     0.611620  Biso 1.000000     O
    O   1.0     0.166787     0.861248     0.611617  Biso 1.000000     O
    O   1.0     0.658931     0.370738     0.611618  Biso 1.000000     O
    O   1.0     0.663170     0.861247     0.611624  Biso 1.000000     O
   Zn   1.0     0.416607     0.151261     0.259891  Biso 1.000000    Zn
   Zn   1.0     0.420834     0.641772     0.259891  Biso 1.000000    Zn
   Zn   1.0     0.912978     0.151261     0.259891  Biso 1.000000    Zn
   Zn   1.0     0.917205     0.641772     0.259891  Biso 1.000000    Zn
   Zn   1.0     0.066106     0.338549     0.780391  Biso 1.000000    Zn
   Zn   1.0     0.070332     0.829061     0.780390  Biso 1.000000    Zn
   Zn   1.0     0.562475     0.338550     0.780390  Biso 1.000000    Zn
   Zn   1.0     0.566704     0.829060     0.780391  Biso 1.000000    Zn
