#======================================================================

# CRYSTAL DATA

#----------------------------------------------------------------------

data_VESTA_phase_1


_pd_phase_name                         MOF
_cell_length_a                         14.12900
_cell_length_b                         14.64800
_cell_length_c                         16.74800
_cell_angle_alpha                      74.59400
_cell_angle_beta                       65.07200
_cell_angle_gamma                      61.24400
_symmetry_space_group_name_H-M         "P 1"
_symmetry_Int_Tables_number            1

loop_
_symmetry_equiv_pos_as_xyz
   "x, y, z"

loop_
   _atom_site_label
   _atom_site_occupancy
   _atom_site_fract_x
   _atom_site_fract_y
   _atom_site_fract_z
   _atom_site_adp_type
   _atom_site_B_iso_or_equiv
   _atom_site_type_symbol
    H   1.0     0.540828     0.300241     0.412203  Biso 1.000000     H
    H   1.0     0.564340     0.445302     0.689499  Biso 1.000000     H
    H   1.0     0.216253     0.503254     0.826516  Biso 1.000000     H
    H   1.0     0.916799     0.180395     0.449033  Biso 1.000000     H
    H   1.0     0.793232     0.662419     0.423032  Biso 1.000000     H
    H   1.0     0.780983     0.170399     0.202972  Biso 1.000000     H
    H   1.0     0.907957     0.947207     0.448033  Biso 1.000000     H
    H   1.0     0.565891     0.259177     0.597132  Biso 1.000000     H
    H   1.0     0.254156     0.199579     0.086928  Biso 1.000000     H
    H   1.0     0.700280     0.052871     0.810868  Biso 1.000000     H
    H   1.0     0.545984     0.997044     0.673340  Biso 1.000000     H
    H   1.0     0.545390     0.319458     0.000000  Biso 1.000000     H
    H   1.0     0.878352     0.837167     0.077474  Biso 1.000000     H
    H   1.0     0.154474     0.328916     0.297019  Biso 1.000000     H
    H   1.0     0.303299     0.552574     0.052220  Biso 1.000000     H
    H   1.0     0.423528     0.239478     0.902422  Biso 1.000000     H
    H   1.0     0.458123     0.698926     0.587702  Biso 1.000000     H
    H   1.0     0.434488     0.553822     0.310605  Biso 1.000000     H
    H   1.0     0.782487     0.496122     0.173426  Biso 1.000000     H
    H   1.0     0.082036     0.818610     0.550842  Biso 1.000000     H
    H   1.0     0.205826     0.336593     0.577057  Biso 1.000000     H
    H   1.0     0.217449     0.829092     0.797184  Biso 1.000000     H
    H   1.0     0.090567     0.051939     0.551986  Biso 1.000000     H
    H   1.0     0.432948     0.740040     0.402922  Biso 1.000000     H
    H   1.0     0.744565     0.799758     0.912993  Biso 1.000000     H
    H   1.0     0.298196     0.946659     0.189055  Biso 1.000000     H
    H   1.0     0.452443     0.002411     0.326673  Biso 1.000000     H
    H   1.0     0.453272     0.679811    -0.051605  Biso 1.000000     H
    H   1.0     0.120297     0.161873     0.922656  Biso 1.000000     H
    H   1.0     0.844159     0.670348     0.703016  Biso 1.000000     H
    H   1.0     0.695419     0.446699     0.947868  Biso 1.000000     H
    H   1.0     0.575005     0.759869     0.097745  Biso 1.000000     H
    C   1.0     0.454375     0.329936     0.460196  Biso 1.000000     C
    C   1.0     0.650821     0.068383     0.292695  Biso 1.000000     C
    C   1.0     0.775561     0.009782     0.391691  Biso 1.000000     C
    C   1.0     0.060830     0.013506     0.339569  Biso 1.000000     C
    C   1.0     0.475157     0.463619     0.703454  Biso 1.000000     C
    C   1.0     0.297998     0.493020     0.774569  Biso 1.000000     C
    C   1.0     0.823955     0.224737     0.477419  Biso 1.000000     C
    C   1.0     0.944770     0.048506     0.332984  Biso 1.000000     C
    C   1.0     0.715147     0.650344     0.456752  Biso 1.000000     C
    C   1.0     0.711287     0.960704     0.472411  Biso 1.000000     C
    C   1.0     0.958806     0.188143     0.207343  Biso 1.000000     C
    C   1.0     0.807376     0.121206     0.257930  Biso 1.000000     C
    C   1.0     0.903176     0.117702     0.266896  Biso 1.000000     C
    C   1.0     0.878091    -0.001377     0.395034  Biso 1.000000     C
    C   1.0     0.645489     0.264217     0.551984  Biso 1.000000     C
    C   1.0     0.744019     0.065625     0.316876  Biso 1.000000     C
    C   1.0     0.245324     0.169553     0.039120  Biso 1.000000     C
    C   1.0     0.012060     0.431103     0.207453  Biso 1.000000     C
    C   1.0     0.177161     0.489856     0.108487  Biso 1.000000     C
    C   1.0     0.414195     0.485921     0.160612  Biso 1.000000     C
    C   1.0     0.643098     0.035026     0.796746  Biso 1.000000     C
    C   1.0     0.565835     0.000000     0.725400  Biso 1.000000     C
    C   1.0     0.525787     0.274827     0.000000  Biso 1.000000     C
    C   1.0     0.326481     0.450953     0.167111  Biso 1.000000     C
    C   1.0     0.822022     0.848998     0.043746  Biso 1.000000     C
    C   1.0     0.144603     0.538795     0.000000  Biso 1.000000     C
    C   1.0     0.354664     0.310734     0.292351  Biso 1.000000     C
    C   1.0     0.186633     0.378213     0.242124  Biso 1.000000     C
    C   1.0     0.288020     0.381557     0.233059  Biso 1.000000     C
    C   1.0     0.271915     0.501000     0.105147  Biso 1.000000     C
    C   1.0     0.462515     0.234739     0.947844  Biso 1.000000     C
    C   1.0     0.126647     0.433911     0.183250  Biso 1.000000     C
    C   1.0     0.544599     0.669199     0.539747  Biso 1.000000     C
    C   1.0     0.347720     0.930955     0.707324  Biso 1.000000     C
    C   1.0     0.222898     0.989544     0.608376  Biso 1.000000     C
    C   1.0     0.937791     0.985513     0.660473  Biso 1.000000     C
    C   1.0     0.523670     0.535546     0.296602  Biso 1.000000     C
    C   1.0     0.700783     0.506280     0.225404  Biso 1.000000     C
    C   1.0     0.174894     0.774315     0.522498  Biso 1.000000     C
    C   1.0     0.053827     0.950622     0.667043  Biso 1.000000     C
    C   1.0     0.283888     0.348700     0.543293  Biso 1.000000     C
    C   1.0     0.287187     0.038585     0.527629  Biso 1.000000     C
    C   1.0     0.039915     0.810976     0.792719  Biso 1.000000     C
    C   1.0     0.191086     0.878199     0.742189  Biso 1.000000     C
    C   1.0     0.095382     0.881543     0.733188  Biso 1.000000     C
    C   1.0     0.120430     0.000000     0.605006  Biso 1.000000     C
    C   1.0     0.353367     0.734937     0.448031  Biso 1.000000     C
    C   1.0     0.254425     0.933784     0.683214  Biso 1.000000     C
    C   1.0     0.753390     0.829705     0.960856  Biso 1.000000     C
    C   1.0     0.986756     0.568072     0.792470  Biso 1.000000     C
    C   1.0     0.821540     0.509431     0.891552  Biso 1.000000     C
    C   1.0     0.584439     0.513287     0.839522  Biso 1.000000     C
    C   1.0     0.355381     0.964478     0.203201  Biso 1.000000     C
    C   1.0     0.432627    -0.007258     0.274591  Biso 1.000000     C
    C   1.0     0.472874     0.724444    -0.022946  Biso 1.000000     C
    C   1.0     0.672190     0.548269     0.832967  Biso 1.000000     C
    C   1.0     0.176644     0.150113     0.956342  Biso 1.000000     C
    C   1.0     0.854096     0.460492    -0.027683  Biso 1.000000     C
    C   1.0     0.643973     0.688433     0.707736  Biso 1.000000     C
    C   1.0     0.812036     0.621039     0.757923  Biso 1.000000     C
    C   1.0     0.710637     0.617675     0.767025  Biso 1.000000     C
    C   1.0     0.726776     0.498270     0.894920  Biso 1.000000     C
    C   1.0     0.536074     0.764573     0.052294  Biso 1.000000     C
    C   1.0     0.872087     0.565338     0.816757  Biso 1.000000     C
    N   1.0     0.426450     0.490933     0.642950  Biso 1.000000     N
    N   1.0     0.312240     0.510107     0.689328  Biso 1.000000     N
    N   1.0     0.704128     0.568353     0.447902  Biso 1.000000     N
    N   1.0     0.382184     0.283210     0.486717  Biso 1.000000     N
    N   1.0     0.751067     0.182794     0.536813  Biso 1.000000     N
    N   1.0     0.397925     0.463564     0.786719  Biso 1.000000     N
    N   1.0     0.765989     0.326082     0.457009  Biso 1.000000     N
    N   1.0     0.406039     0.417701     0.498870  Biso 1.000000     N
    N   1.0     0.650303     0.351438     0.505155  Biso 1.000000     N
    N   1.0     0.561044     0.000000     0.857114  Biso 1.000000     N
    N   1.0     0.511988     0.989329     0.810589  Biso 1.000000     N
    N   1.0     0.720388     0.930961     0.052411  Biso 1.000000     N
    N   1.0     0.152973     0.215963     0.012673  Biso 1.000000     N
    N   1.0     0.470732     0.316503     0.963448  Biso 1.000000     N
    N   1.0     0.648808     0.000000     0.713420  Biso 1.000000     N
    N   1.0     0.549239     0.173323     0.043201  Biso 1.000000     N
    N   1.0     0.323272     0.081666     0.000675  Biso 1.000000     N
    N   1.0     0.507765     0.147594     0.994638  Biso 1.000000     N
    N   1.0     0.572453     0.508197     0.357060  Biso 1.000000     N
    N   1.0     0.686628     0.489112     0.310631  Biso 1.000000     N
    N   1.0     0.294878     0.430734     0.552083  Biso 1.000000     N
    N   1.0     0.616844     0.715848     0.513311  Biso 1.000000     N
    N   1.0     0.247749     0.816307     0.463148  Biso 1.000000     N
    N   1.0     0.600829     0.535695     0.213312  Biso 1.000000     N
    N   1.0     0.232916     0.672992     0.542927  Biso 1.000000     N
    N   1.0     0.592924     0.581459     0.501044  Biso 1.000000     N
    N   1.0     0.348608     0.647696     0.494850  Biso 1.000000     N
    N   1.0     0.437484    -0.008368     0.142856  Biso 1.000000     N
    N   1.0     0.486534     0.010098     0.189408  Biso 1.000000     N
    N   1.0     0.278304     0.068191     0.947674  Biso 1.000000     N
    N   1.0     0.845699     0.783210     0.987354  Biso 1.000000     N
    N   1.0     0.527842     0.682798     0.036723  Biso 1.000000     N
    N   1.0     0.349639    -0.036203     0.286534  Biso 1.000000     N
    N   1.0     0.449490     0.825932     0.956846  Biso 1.000000     N
    N   1.0     0.675459     0.917582     0.999333  Biso 1.000000     N
    N   1.0     0.490913     0.851691     0.005433  Biso 1.000000     N
    O   1.0     0.000000     0.185397     0.215373  Biso 1.000000     O
    O   1.0     0.555891     0.072481     0.350373  Biso 1.000000     O
    O   1.0     0.909017     0.251000     0.151120  Biso 1.000000     O
    O   1.0     0.288831     0.028333     0.453671  Biso 1.000000     O
    O   1.0     0.664237     0.909036     0.465415  Biso 1.000000     O
    O   1.0     0.142774     0.940136     0.295422  Biso 1.000000     O
    O   1.0     0.932536     0.948317     0.600383  Biso 1.000000     O
    O   1.0     0.680355     0.062749     0.209373  Biso 1.000000     O
    O   1.0     0.445318     0.313238     0.284211  Biso 1.000000     O
    O   1.0    -0.020979     0.426557     0.149845  Biso 1.000000     O
    O   1.0     0.311434     0.247831     0.348533  Biso 1.000000     O
    O   1.0     0.771606     0.470514     0.046263  Biso 1.000000     O
    O   1.0     0.039019     0.590349     0.034720  Biso 1.000000     O
    O   1.0     0.378721     0.559112     0.204988  Biso 1.000000     O
    O   1.0     0.481879     0.550712     0.899390  Biso 1.000000     O
    O   1.0     0.952540     0.437040     0.290743  Biso 1.000000     O
    O   1.0    -0.045027     0.813337     0.784565  Biso 1.000000     O
    O   1.0     0.442671     0.926720     0.649586  Biso 1.000000     O
    O   1.0     0.089577     0.748379     0.849085  Biso 1.000000     O
    O   1.0     0.709811     0.970742     0.546379  Biso 1.000000     O
    O   1.0     0.334092     0.090391     0.534619  Biso 1.000000     O
    O   1.0     0.855809     0.058740     0.704763  Biso 1.000000     O
    O   1.0     0.066105     0.050812     0.399574  Biso 1.000000     O
    O   1.0     0.318281     0.936611     0.790630  Biso 1.000000     O
    O   1.0     0.553553     0.685613     0.715711  Biso 1.000000     O
    O   1.0     0.000000     0.572589     0.850027  Biso 1.000000     O
    O   1.0     0.686963     0.751595     0.651741  Biso 1.000000     O
    O   1.0     0.227108     0.528608     0.953778  Biso 1.000000     O
    O   1.0     0.959683     0.409080     0.965325  Biso 1.000000     O
    O   1.0     0.619970     0.439827     0.795406  Biso 1.000000     O
    O   1.0     0.516628     0.448768     0.100530  Biso 1.000000     O
    O   1.0     0.046251     0.562084     0.709175  Biso 1.000000     O
   Zn   1.0     0.774178     0.037963     0.597367  Biso 1.000000    Zn
   Zn   1.0     0.400758     0.169256     0.426584  Biso 1.000000    Zn
   Zn   1.0     0.198759     0.555675     0.629548  Biso 1.000000    Zn
   Zn   1.0     0.409552     0.461178     0.902809  Biso 1.000000    Zn
   Zn   1.0    -0.002305     0.329746     0.073029  Biso 1.000000    Zn
   Zn   1.0     0.384662     0.943223     0.870221  Biso 1.000000    Zn
   Zn   1.0     0.224491     0.961082     0.402607  Biso 1.000000    Zn
   Zn   1.0     0.597980     0.829954     0.573464  Biso 1.000000    Zn
   Zn   1.0     0.800147     0.443422     0.370381  Biso 1.000000    Zn
   Zn   1.0     0.589232     0.537973     0.097220  Biso 1.000000    Zn
   Zn   1.0     0.000000     0.669422     0.926947  Biso 1.000000    Zn
   Zn   1.0     0.614030     0.056029     0.129808  Biso 1.000000    Zn
   Zn   1.0     0.499599     0.499508     0.500006  Biso 1.000000    Zn
   Zn   1.0     0.499481    -0.000410    -0.000007  Biso 1.000000    Zn
