#======================================================================

# CRYSTAL DATA

#----------------------------------------------------------------------

data_VESTA_phase_1


_pd_phase_name                         MOF
_cell_length_a                         18.39300
_cell_length_b                         13.83100
_cell_length_c                         12.70000
_cell_angle_alpha                      60.97800
_cell_angle_beta                       78.97200
_cell_angle_gamma                      72.72600
_symmetry_space_group_name_H-M         "P 1"
_symmetry_Int_Tables_number            1

loop_
_symmetry_equiv_pos_as_xyz
   "x, y, z"

loop_
   _atom_site_label
   _atom_site_occupancy
   _atom_site_fract_x
   _atom_site_fract_y
   _atom_site_fract_z
   _atom_site_adp_type
   _atom_site_B_iso_or_equiv
   _atom_site_type_symbol
    H   1.0     0.165933     0.610069     0.942469  Biso 1.000000     H
    H   1.0     0.665924     0.610062     0.942467  Biso 1.000000     H
    H   1.0     0.212650     0.692630     0.804770  Biso 1.000000     H
    H   1.0     0.712653     0.692611     0.804777  Biso 1.000000     H
    H   1.0     0.096220     0.855810     0.757882  Biso 1.000000     H
    H   1.0     0.596230     0.855804     0.757863  Biso 1.000000     H
    H   1.0     0.049742     0.775645     0.895367  Biso 1.000000     H
    H   1.0     0.549743     0.775653     0.895344  Biso 1.000000     H
    H   1.0     0.184864     0.707545     0.455516  Biso 1.000000     H
    H   1.0     0.684864     0.707567     0.455499  Biso 1.000000     H
    H   1.0     0.149687     0.598719     0.458848  Biso 1.000000     H
    H   1.0     0.649702     0.598730     0.458826  Biso 1.000000     H
    H   1.0     0.048835     0.831101     0.429089  Biso 1.000000     H
    H   1.0     0.548831     0.831102     0.429070  Biso 1.000000     H
    H   1.0     0.020484     0.728457     0.411509  Biso 1.000000     H
    H   1.0     0.520490     0.728445     0.411497  Biso 1.000000     H
    H   1.0     0.020782     0.383338     0.944292  Biso 1.000000     H
    H   1.0     0.520775     0.383341     0.944257  Biso 1.000000     H
    H   1.0     0.020680     0.375017     0.808080  Biso 1.000000     H
    H   1.0     0.520687     0.375019     0.808042  Biso 1.000000     H
    H   1.0     0.164703     0.297559     0.814704  Biso 1.000000     H
    H   1.0     0.664708     0.297555     0.814693  Biso 1.000000     H
    H   1.0     0.159853     0.290712     0.958585  Biso 1.000000     H
    H   1.0     0.659846     0.290716     0.958572  Biso 1.000000     H
    H   1.0     0.330643     0.392648     0.056993  Biso 1.000000     H
    H   1.0     0.830639     0.392646     0.057019  Biso 1.000000     H
    H   1.0     0.284195     0.309863     0.194899  Biso 1.000000     H
    H   1.0     0.784194     0.309859     0.194929  Biso 1.000000     H
    H   1.0     0.400720     0.146929     0.241226  Biso 1.000000     H
    H   1.0     0.900719     0.146926     0.241248  Biso 1.000000     H
    H   1.0     0.447004     0.227307     0.103639  Biso 1.000000     H
    H   1.0     0.947000     0.227307     0.103659  Biso 1.000000     H
    H   1.0     0.312106     0.295783     0.543706  Biso 1.000000     H
    H   1.0     0.812102     0.295793     0.543726  Biso 1.000000     H
    H   1.0     0.348094     0.403931     0.540324  Biso 1.000000     H
    H   1.0     0.848085     0.403949     0.540338  Biso 1.000000     H
    H   1.0     0.447674     0.170886     0.570175  Biso 1.000000     H
    H   1.0     0.947677     0.170909     0.570193  Biso 1.000000     H
    H   1.0     0.476938     0.272937     0.587557  Biso 1.000000     H
    H   1.0     0.976931     0.272966     0.587576  Biso 1.000000     H
    H   1.0     0.476134     0.619346     0.054577  Biso 1.000000     H
    H   1.0     0.976137     0.619342     0.054592  Biso 1.000000     H
    H   1.0     0.476448     0.627617     0.190750  Biso 1.000000     H
    H   1.0     0.976443     0.627626     0.190761  Biso 1.000000     H
    H   1.0     0.332405     0.705039     0.184571  Biso 1.000000     H
    H   1.0     0.832398     0.705045     0.184563  Biso 1.000000     H
    H   1.0     0.337039     0.711899     0.040728  Biso 1.000000     H
    H   1.0     0.837044     0.711904     0.040717  Biso 1.000000     H
    C   1.0     0.096947     0.536889     0.858832  Biso 1.000000     C
    C   1.0     0.596946     0.536885     0.858814  Biso 1.000000     C
    C   1.0     0.134855     0.685194     0.662330  Biso 1.000000     C
    C   1.0     0.634857     0.685195     0.662319  Biso 1.000000     C
    C   1.0     0.089444     0.530783     0.669281  Biso 1.000000     C
    C   1.0     0.589448     0.530788     0.669257  Biso 1.000000     C
    C   1.0     0.157141     0.677917     0.850198  Biso 1.000000     C
    C   1.0     0.657140     0.677908     0.850193  Biso 1.000000     C
    C   1.0     0.106135     0.787367     0.850299  Biso 1.000000     C
    C   1.0     0.606138     0.787365     0.850283  Biso 1.000000     C
    C   1.0     0.141084     0.828059     0.915154  Biso 1.000000     C
    C   1.0     0.641087     0.828057     0.915138  Biso 1.000000     C
    C   1.0     0.134905     0.672556     0.476357  Biso 1.000000     C
    C   1.0     0.634910     0.672566     0.476338  Biso 1.000000     C
    C   1.0     0.069308     0.763538     0.400570  Biso 1.000000     C
    C   1.0     0.569309     0.763537     0.400553  Biso 1.000000     C
    C   1.0     0.092748     0.821608     0.266665  Biso 1.000000     C
    C   1.0     0.592746     0.821608     0.266646  Biso 1.000000     C
    C   1.0     0.055168     0.381655     0.864468  Biso 1.000000     C
    C   1.0     0.555168     0.381657     0.864438  Biso 1.000000     C
    C   1.0     0.127680     0.285830     0.897268  Biso 1.000000     C
    C   1.0     0.627679     0.285830     0.897251  Biso 1.000000     C
    C   1.0     0.116335     0.166268     0.953136  Biso 1.000000     C
    C   1.0     0.616334     0.166268     0.953120  Biso 1.000000     C
    C   1.0     0.399948     0.465758     0.140334  Biso 1.000000     C
    C   1.0     0.899950     0.465754     0.140354  Biso 1.000000     C
    C   1.0     0.362145     0.317472     0.336947  Biso 1.000000     C
    C   1.0     0.862143     0.317477     0.336970  Biso 1.000000     C
    C   1.0     0.407937     0.471656     0.329826  Biso 1.000000     C
    C   1.0     0.907927     0.471671     0.329839  Biso 1.000000     C
    C   1.0     0.339619     0.324746     0.149200  Biso 1.000000     C
    C   1.0     0.839617     0.324744     0.149226  Biso 1.000000     C
    C   1.0     0.390668     0.215412     0.148858  Biso 1.000000     C
    C   1.0     0.890665     0.215410     0.148881  Biso 1.000000     C
    C   1.0     0.355721     0.174640     0.084075  Biso 1.000000     C
    C   1.0     0.855716     0.174641     0.084098  Biso 1.000000     C
    C   1.0     0.362365     0.330136     0.522829  Biso 1.000000     C
    C   1.0     0.862360     0.330152     0.522847  Biso 1.000000     C
    C   1.0     0.427757     0.238533     0.598599  Biso 1.000000     C
    C   1.0     0.927754     0.238555     0.598617  Biso 1.000000     C
    C   1.0     0.404295     0.180786     0.732512  Biso 1.000000     C
    C   1.0     0.904292     0.180804     0.732530  Biso 1.000000     C
    C   1.0     0.441859     0.620983     0.134494  Biso 1.000000     C
    C   1.0     0.941857     0.620986     0.134504  Biso 1.000000     C
    C   1.0     0.369323     0.716787     0.101905  Biso 1.000000     C
    C   1.0     0.869322     0.716792     0.101903  Biso 1.000000     C
    C   1.0     0.380658     0.836371     0.045964  Biso 1.000000     C
    C   1.0     0.880658     0.836375     0.045968  Biso 1.000000     C
    N   1.0     0.076664     0.491754     0.794199  Biso 1.000000     N
    N   1.0     0.576665     0.491755     0.794174  Biso 1.000000     N
    N   1.0     0.125263     0.634360     0.788211  Biso 1.000000     N
    N   1.0     0.625264     0.634356     0.788199  Biso 1.000000     N
    N   1.0     0.116384     0.629930     0.607236  Biso 1.000000     N
    N   1.0     0.616389     0.629935     0.607218  Biso 1.000000     N
    N   1.0     0.420397     0.510859     0.204858  Biso 1.000000     N
    N   1.0     0.920394     0.510864     0.204873  Biso 1.000000     N
    N   1.0     0.371614     0.368311     0.211055  Biso 1.000000     N
    N   1.0     0.871613     0.368310     0.211079  Biso 1.000000     N
    N   1.0     0.380815     0.372663     0.391947  Biso 1.000000     N
    N   1.0     0.880810     0.372675     0.391965  Biso 1.000000     N
    O   1.0     0.090952     0.493494     0.969193  Biso 1.000000     O
    O   1.0     0.590947     0.493487     0.969175  Biso 1.000000     O
    O   1.0     0.159322     0.771180     0.604779  Biso 1.000000     O
    O   1.0     0.659323     0.771182     0.604773  Biso 1.000000     O
    O   1.0     0.077975     0.481196     0.618487  Biso 1.000000     O
    O   1.0     0.577979     0.481207     0.618456  Biso 1.000000     O
    O   1.0     0.202504     0.769189    -0.032128  Biso 1.000000     O
    O   1.0     0.702506     0.769188    -0.032143  Biso 1.000000     O
    O   1.0     0.164962     0.805544     0.239266  Biso 1.000000     O
    O   1.0     0.664960     0.805557     0.239246  Biso 1.000000     O
    O   1.0     0.040677     0.881883     0.193498  Biso 1.000000     O
    O   1.0     0.540673     0.881869     0.193481  Biso 1.000000     O
    O   1.0     0.179016     0.085819     0.980471  Biso 1.000000     O
    O   1.0     0.679016     0.085820     0.980464  Biso 1.000000     O
    O   1.0     0.051054     0.149313     0.969617  Biso 1.000000     O
    O   1.0     0.551054     0.149312     0.969596  Biso 1.000000     O
    O   1.0     0.107908     0.924904    -0.085119  Biso 1.000000     O
    O   1.0     0.607911     0.924905    -0.085138  Biso 1.000000     O
    O   1.0     0.405840     0.509154     0.029973  Biso 1.000000     O
    O   1.0     0.905845     0.509142     0.029994  Biso 1.000000     O
    O   1.0     0.337630     0.231533     0.394574  Biso 1.000000     O
    O   1.0     0.837629     0.231537     0.394601  Biso 1.000000     O
    O   1.0     0.419760     0.521017     0.380603  Biso 1.000000     O
    O   1.0     0.919742     0.521042     0.380610  Biso 1.000000     O
    O   1.0     0.294200     0.233304     0.000000  Biso 1.000000     O
    O   1.0     0.794195     0.233306     0.000000  Biso 1.000000     O
    O   1.0     0.332082     0.197195     0.759925  Biso 1.000000     O
    O   1.0     0.832080     0.197232     0.759946  Biso 1.000000     O
    O   1.0     0.456351     0.120373     0.805670  Biso 1.000000     O
    O   1.0     0.956348     0.120369     0.805684  Biso 1.000000     O
    O   1.0     0.317981     0.916824     0.018554  Biso 1.000000     O
    O   1.0     0.817982     0.916830     0.018545  Biso 1.000000     O
    O   1.0     0.445927     0.853345     0.029504  Biso 1.000000     O
    O   1.0     0.945927     0.853346     0.029525  Biso 1.000000     O
    O   1.0     0.389035     0.077907     0.000000  Biso 1.000000     O
    O   1.0     0.889028     0.077907     0.000000  Biso 1.000000     O
   Cd   1.0     0.195869     0.894170     0.047518  Biso 1.000000    Cd
   Cd   1.0     0.695871     0.894172     0.047498  Biso 1.000000    Cd
   Cd   1.0     0.301102     0.108463     0.951613  Biso 1.000000    Cd
   Cd   1.0     0.801098     0.108468     0.951630  Biso 1.000000    Cd
   Cd   1.0    -0.001510     0.001327    -0.000378  Biso 1.000000    Cd
   Cd   1.0     0.498491     0.001322    -0.000396  Biso 1.000000    Cd
