#======================================================================

# CRYSTAL DATA

#----------------------------------------------------------------------

data_VESTA_phase_1


_pd_phase_name                         MOF
_cell_length_a                         21.40900
_cell_length_b                         12.32400
_cell_length_c                         15.67400
_cell_angle_alpha                      89.94100
_cell_angle_beta                       128.02400
_cell_angle_gamma                      90.22600
_symmetry_space_group_name_H-M         "P 1"
_symmetry_Int_Tables_number            1

loop_
_symmetry_equiv_pos_as_xyz
   "x, y, z"

loop_
   _atom_site_label
   _atom_site_occupancy
   _atom_site_fract_x
   _atom_site_fract_y
   _atom_site_fract_z
   _atom_site_adp_type
   _atom_site_B_iso_or_equiv
   _atom_site_type_symbol
    H   1.0     0.268908     0.159123     0.677993  Biso 1.000000     H
    H   1.0     0.769083     0.159105     0.678088  Biso 1.000000     H
    H   1.0     0.264086     0.380077     0.460050  Biso 1.000000     H
    H   1.0     0.764014     0.380099     0.459973  Biso 1.000000     H
    H   1.0     0.479183     0.213059     0.703658  Biso 1.000000     H
    H   1.0     0.979220     0.213207     0.703448  Biso 1.000000     H
    H   1.0     0.572578     0.147749     0.889431  Biso 1.000000     H
    H   1.0     0.000000     0.147771     0.889381  Biso 1.000000     H
    H   1.0     0.228428     0.658234     0.824372  Biso 1.000000     H
    H   1.0     0.728457     0.658465     0.824380  Biso 1.000000     H
    H   1.0     0.233960     0.880783     0.000000  Biso 1.000000     H
    H   1.0     0.733917     0.880907     0.000000  Biso 1.000000     H
    H   1.0     0.017796     0.714101     0.796725  Biso 1.000000     H
    H   1.0     0.517825     0.714051     0.796795  Biso 1.000000     H
    H   1.0    -0.075235     0.647712     0.610231  Biso 1.000000     H
    H   1.0     0.424715     0.647664     0.610533  Biso 1.000000     H
    H   1.0     0.228812     0.836364     0.322927  Biso 1.000000     H
    H   1.0     0.728688     0.836323     0.322751  Biso 1.000000     H
    H   1.0     0.233732     0.615419     0.540960  Biso 1.000000     H
    H   1.0     0.733727     0.615292     0.540814  Biso 1.000000     H
    H   1.0     0.018599     0.782385     0.297410  Biso 1.000000     H
    H   1.0     0.518571     0.782359     0.297467  Biso 1.000000     H
    H   1.0    -0.074788     0.847674     0.111624  Biso 1.000000     H
    H   1.0     0.425182     0.847584     0.111610  Biso 1.000000     H
    H   1.0     0.269411     0.336929     0.176710  Biso 1.000000     H
    H   1.0     0.769360     0.337066     0.176635  Biso 1.000000     H
    H   1.0     0.263860     0.114513    -0.040541  Biso 1.000000     H
    H   1.0     0.763759     0.114491    -0.040556  Biso 1.000000     H
    H   1.0     0.480001     0.281273     0.204205  Biso 1.000000     H
    H   1.0     0.979902     0.281333     0.204036  Biso 1.000000     H
    H   1.0     0.573073     0.347709     0.390507  Biso 1.000000     H
    H   1.0     0.000000     0.347708     0.390358  Biso 1.000000     H
    C   1.0     0.419503     0.096726     0.792226  Biso 1.000000     C
    C   1.0     0.919681     0.096825     0.792186  Biso 1.000000     C
    C   1.0     0.378063     0.175126     0.699332  Biso 1.000000     C
    C   1.0     0.878182     0.175205     0.699289  Biso 1.000000     C
    C   1.0     0.298515     0.198247     0.649325  Biso 1.000000     C
    C   1.0     0.798635     0.198260     0.649353  Biso 1.000000     C
    C   1.0     0.257350     0.272003     0.563405  Biso 1.000000     C
    C   1.0     0.757409     0.271997     0.563430  Biso 1.000000     C
    C   1.0     0.175195     0.301477     0.518202  Biso 1.000000     C
    C   1.0     0.675259     0.301393     0.518271  Biso 1.000000     C
    C   1.0     0.295387     0.322231     0.526472  Biso 1.000000     C
    C   1.0     0.795371     0.322267     0.526404  Biso 1.000000     C
    C   1.0     0.375527     0.301133     0.578034  Biso 1.000000     C
    C   1.0     0.875503     0.301229     0.577899  Biso 1.000000     C
    C   1.0     0.417629     0.361992     0.543450  Biso 1.000000     C
    C   1.0     0.917557     0.362105     0.543266  Biso 1.000000     C
    C   1.0     0.416804     0.227848     0.664507  Biso 1.000000     C
    C   1.0     0.916848     0.227950     0.664370  Biso 1.000000     C
    C   1.0     0.077391     0.596873     0.708753  Biso 1.000000     C
    C   1.0     0.577412     0.596944     0.708794  Biso 1.000000     C
    C   1.0     0.118999     0.675297     0.801893  Biso 1.000000     C
    C   1.0     0.619027     0.675372     0.801937  Biso 1.000000     C
    C   1.0     0.198854     0.697861     0.852630  Biso 1.000000     C
    C   1.0     0.698866     0.698022     0.852647  Biso 1.000000     C
    C   1.0     0.240407     0.771766     0.938669  Biso 1.000000     C
    C   1.0     0.740376     0.771965     0.938654  Biso 1.000000     C
    C   1.0     0.322925     0.800408     0.984239  Biso 1.000000     C
    C   1.0     0.822868     0.800702     0.984166  Biso 1.000000     C
    C   1.0     0.202412     0.822717     0.975074  Biso 1.000000     C
    C   1.0     0.702383     0.822829     0.975102  Biso 1.000000     C
    C   1.0     0.122009     0.801984     0.922937  Biso 1.000000     C
    C   1.0     0.621991     0.802023     0.922985  Biso 1.000000     C
    C   1.0     0.080009     0.863157     0.957160  Biso 1.000000     C
    C   1.0     0.579961     0.863119     0.957213  Biso 1.000000     C
    C   1.0     0.080365     0.728548     0.836308  Biso 1.000000     C
    C   1.0     0.580386     0.728555     0.836379  Biso 1.000000     C
    C   1.0     0.078149     0.898643     0.208683  Biso 1.000000     C
    C   1.0     0.578132     0.898677     0.208690  Biso 1.000000     C
    C   1.0     0.119671     0.820325     0.301635  Biso 1.000000     C
    C   1.0     0.619604     0.820298     0.301595  Biso 1.000000     C
    C   1.0     0.199222     0.797236     0.351618  Biso 1.000000     C
    C   1.0     0.699133     0.797180     0.351486  Biso 1.000000     C
    C   1.0     0.240408     0.723488     0.437543  Biso 1.000000     C
    C   1.0     0.740347     0.723405     0.437374  Biso 1.000000     C
    C   1.0     0.322560     0.694031     0.482740  Biso 1.000000     C
    C   1.0     0.822465     0.693940     0.482419  Biso 1.000000     C
    C   1.0     0.202407     0.673257     0.474531  Biso 1.000000     C
    C   1.0     0.702386     0.673157     0.474413  Biso 1.000000     C
    C   1.0     0.122274     0.694351     0.422998  Biso 1.000000     C
    C   1.0     0.622267     0.694265     0.422976  Biso 1.000000     C
    C   1.0     0.080150     0.633534     0.457554  Biso 1.000000     C
    C   1.0     0.580233     0.633361     0.457640  Biso 1.000000     C
    C   1.0     0.080972     0.767618     0.336520  Biso 1.000000     C
    C   1.0     0.580935     0.767570     0.336522  Biso 1.000000     C
    C   1.0     0.420426     0.398433     0.292232  Biso 1.000000     C
    C   1.0     0.920361     0.398530     0.292074  Biso 1.000000     C
    C   1.0     0.378818     0.319988     0.199105  Biso 1.000000     C
    C   1.0     0.878739     0.320073     0.198975  Biso 1.000000     C
    C   1.0     0.298984     0.297347     0.148428  Biso 1.000000     C
    C   1.0     0.798906     0.297451     0.148330  Biso 1.000000     C
    C   1.0     0.257449     0.223431     0.062405  Biso 1.000000     C
    C   1.0     0.757352     0.223512     0.062327  Biso 1.000000     C
    C   1.0     0.174955     0.194725     0.016891  Biso 1.000000     C
    C   1.0     0.674860     0.194822     0.016827  Biso 1.000000     C
    C   1.0     0.295416     0.172561     0.025921  Biso 1.000000     C
    C   1.0     0.795315     0.172582     0.025868  Biso 1.000000     C
    C   1.0     0.375801     0.193355     0.078000  Biso 1.000000     C
    C   1.0     0.875700     0.193361     0.077932  Biso 1.000000     C
    C   1.0     0.417788     0.132283     0.043695  Biso 1.000000     C
    C   1.0     0.917687     0.132195     0.043692  Biso 1.000000     C
    C   1.0     0.417441     0.266783     0.164646  Biso 1.000000     C
    C   1.0     0.917349     0.266841     0.164517  Biso 1.000000     C
    O   1.0     0.377216     0.022425     0.789126  Biso 1.000000     O
    O   1.0     0.877385     0.022669     0.789252  Biso 1.000000     O
    O   1.0     0.493693     0.111244     0.870176  Biso 1.000000     O
    O   1.0     0.993919     0.111214     0.870017  Biso 1.000000     O
    O   1.0    -0.013456     0.328235     0.580942  Biso 1.000000     O
    O   1.0     0.486567     0.328055     0.581042  Biso 1.000000     O
    O   1.0     0.381207     0.442339     0.481051  Biso 1.000000     O
    O   1.0     0.881110     0.442399     0.480810  Biso 1.000000     O
    O   1.0     0.128427     0.328799     0.415039  Biso 1.000000     O
    O   1.0     0.628523     0.328867     0.415139  Biso 1.000000     O
    O   1.0     0.154705     0.300280     0.577756  Biso 1.000000     O
    O   1.0     0.654742     0.300019     0.577790  Biso 1.000000     O
    O   1.0     0.119475     0.522708     0.712054  Biso 1.000000     O
    O   1.0     0.619485     0.522829     0.711983  Biso 1.000000     O
    O   1.0     0.003363     0.611309     0.630333  Biso 1.000000     O
    O   1.0     0.503376     0.611362     0.630463  Biso 1.000000     O
    O   1.0     0.511097     0.828418     0.920129  Biso 1.000000     O
    O   1.0     0.000000     0.828578     0.919971  Biso 1.000000     O
    O   1.0     0.116474     0.944233     0.000000  Biso 1.000000     O
    O   1.0     0.616335     0.944300     0.000000  Biso 1.000000     O
    O   1.0     0.369683     0.828976     0.000000  Biso 1.000000     O
    O   1.0     0.869688     0.829023     0.000000  Biso 1.000000     O
    O   1.0     0.343814     0.797362     0.925175  Biso 1.000000     O
    O   1.0     0.843638     0.797940     0.924957  Biso 1.000000     O
    O   1.0     0.120406     0.972816     0.211549  Biso 1.000000     O
    O   1.0     0.620422     0.972926     0.211726  Biso 1.000000     O
    O   1.0     0.003917     0.884195     0.130881  Biso 1.000000     O
    O   1.0     0.503932     0.884184     0.130771  Biso 1.000000     O
    O   1.0     0.511342     0.667356     0.420222  Biso 1.000000     O
    O   1.0     0.000000     0.667298     0.419625  Biso 1.000000     O
    O   1.0     0.116622     0.553382     0.520214  Biso 1.000000     O
    O   1.0     0.616645     0.552927     0.519901  Biso 1.000000     O
    O   1.0     0.369259     0.666526     0.585867  Biso 1.000000     O
    O   1.0     0.869290     0.666596     0.585567  Biso 1.000000     O
    O   1.0     0.343116     0.695385     0.423267  Biso 1.000000     O
    O   1.0     0.842867     0.695176     0.422762  Biso 1.000000     O
    O   1.0     0.378360     0.472623     0.288943  Biso 1.000000     O
    O   1.0     0.878252     0.472592     0.288867  Biso 1.000000     O
    O   1.0     0.494443     0.383987     0.370630  Biso 1.000000     O
    O   1.0     0.994430     0.384219     0.370371  Biso 1.000000     O
    O   1.0    -0.013389     0.166784     0.080863  Biso 1.000000     O
    O   1.0     0.486691     0.166924     0.080900  Biso 1.000000     O
    O   1.0     0.381347     0.051238    -0.018103  Biso 1.000000     O
    O   1.0     0.881216     0.051112    -0.018015  Biso 1.000000     O
    O   1.0     0.128145     0.166422    -0.086102  Biso 1.000000     O
    O   1.0     0.628062     0.166376    -0.086156  Biso 1.000000     O
    O   1.0     0.154165     0.197517     0.076078  Biso 1.000000     O
    O   1.0     0.654040     0.197713     0.075969  Biso 1.000000     O
   Cd   1.0     0.430097     0.917423     0.937921  Biso 1.000000    Cd
   Cd   1.0     0.930164     0.917577     0.937988  Biso 1.000000    Cd
   Cd   1.0     0.067465     0.418302     0.563009  Biso 1.000000    Cd
   Cd   1.0     0.567522     0.418156     0.563124  Biso 1.000000    Cd
   Cd   1.0     0.067574     0.077885     0.062861  Biso 1.000000    Cd
   Cd   1.0     0.567567     0.077884     0.062948  Biso 1.000000    Cd
   Cd   1.0     0.430315     0.577183     0.437926  Biso 1.000000    Cd
   Cd   1.0     0.930243     0.577248     0.437721  Biso 1.000000    Cd
