#======================================================================

# CRYSTAL DATA

#----------------------------------------------------------------------

data_VESTA_phase_1


_pd_phase_name                         MOF
_cell_length_a                         15.60000
_cell_length_b                         18.11900
_cell_length_c                         20.15500
_cell_angle_alpha                      113.23200
_cell_angle_beta                       90.03700
_cell_angle_gamma                      89.99000
_symmetry_space_group_name_H-M         "P 1"
_symmetry_Int_Tables_number            1

loop_
_symmetry_equiv_pos_as_xyz
   "x, y, z"

loop_
   _atom_site_label
   _atom_site_occupancy
   _atom_site_fract_x
   _atom_site_fract_y
   _atom_site_fract_z
   _atom_site_adp_type
   _atom_site_B_iso_or_equiv
   _atom_site_type_symbol
    H   1.0     0.162473     0.847007     0.851437  Biso 1.000000     H
    H   1.0     0.167023     0.749812     0.852488  Biso 1.000000     H
    H   1.0     0.058130     0.832814     0.634344  Biso 1.000000     H
    H   1.0     0.972856     0.831362     0.529210  Biso 1.000000     H
    H   1.0     0.899020     0.587878     0.490227  Biso 1.000000     H
    H   1.0     0.986304     0.600241     0.597784  Biso 1.000000     H
    H   1.0     0.827759     0.901075     0.489645  Biso 1.000000     H
    H   1.0     0.822326     0.853529     0.552103  Biso 1.000000     H
    H   1.0     0.729470     0.861599     0.505174  Biso 1.000000     H
    H   1.0     0.901660     0.542521     0.279888  Biso 1.000000     H
    H   1.0     0.878362     0.523613     0.357453  Biso 1.000000     H
    H   1.0     0.975767     0.572365     0.352975  Biso 1.000000     H
    H   1.0     0.701048     0.840343     0.389899  Biso 1.000000     H
    H   1.0     0.683610     0.752216     0.309797  Biso 1.000000     H
    H   1.0     0.754435     0.675490     0.179702  Biso 1.000000     H
    H   1.0     0.739056     0.732919     0.126244  Biso 1.000000     H
    H   1.0     0.667685     0.744316     0.197870  Biso 1.000000     H
    H   1.0     0.911763     0.026283     0.303882  Biso 1.000000     H
    H   1.0     0.997468     0.956237     0.279757  Biso 1.000000     H
    H   1.0     0.954459     0.992678     0.368905  Biso 1.000000     H
    H   1.0     0.880029     0.715294     0.097791  Biso 1.000000     H
    H   1.0     0.937345     0.710633    -0.018623  Biso 1.000000     H
    H   1.0     0.965798     0.958711     0.063886  Biso 1.000000     H
    H   1.0     0.903751     0.974036     0.180658  Biso 1.000000     H
    H   1.0     0.302384     0.021970     0.849181  Biso 1.000000     H
    H   1.0     0.394310     0.110349     0.808134  Biso 1.000000     H
    H   1.0     0.341737     0.957194     0.587459  Biso 1.000000     H
    H   1.0     0.248383     0.870889     0.628699  Biso 1.000000     H
    H   1.0     0.895025     0.537234     0.662241  Biso 1.000000     H
    H   1.0     0.800027     0.416407     0.633608  Biso 1.000000     H
    H   1.0     0.778794     0.467166     0.859365  Biso 1.000000     H
    H   1.0     0.871863     0.588803     0.888195  Biso 1.000000     H
    H   1.0     0.662341     0.153202     0.648618  Biso 1.000000     H
    H   1.0     0.666785     0.250429     0.647772  Biso 1.000000     H
    H   1.0     0.557688     0.166877     0.865292  Biso 1.000000     H
    H   1.0     0.472432     0.168181     0.970282  Biso 1.000000     H
    H   1.0     0.399268     0.411990     0.000000  Biso 1.000000     H
    H   1.0     0.486502     0.399763     0.902405  Biso 1.000000     H
    H   1.0     0.327477     0.098552     0.000000  Biso 1.000000     H
    H   1.0     0.322005     0.146302     0.947465  Biso 1.000000     H
    H   1.0     0.229195     0.138197     0.994333  Biso 1.000000     H
    H   1.0     0.401923     0.456874     0.219985  Biso 1.000000     H
    H   1.0     0.378331     0.476058     0.142587  Biso 1.000000     H
    H   1.0     0.475782     0.427196     0.146810  Biso 1.000000     H
    H   1.0     0.201042     0.159129     0.109587  Biso 1.000000     H
    H   1.0     0.183437     0.247330     0.189574  Biso 1.000000     H
    H   1.0     0.253872     0.324278     0.319775  Biso 1.000000     H
    H   1.0     0.238390     0.267003     0.373342  Biso 1.000000     H
    H   1.0     0.167168     0.255403     0.301524  Biso 1.000000     H
    H   1.0     0.411807     0.973777     0.196452  Biso 1.000000     H
    H   1.0     0.497367     0.043975     0.220882  Biso 1.000000     H
    H   1.0     0.454720     0.007407     0.131563  Biso 1.000000     H
    H   1.0     0.379195     0.284778     0.402325  Biso 1.000000     H
    H   1.0     0.436423     0.289582     0.518876  Biso 1.000000     H
    H   1.0     0.465364     0.041559     0.436490  Biso 1.000000     H
    H   1.0     0.403449     0.026089     0.319576  Biso 1.000000     H
    H   1.0     0.802797     0.978533     0.650526  Biso 1.000000     H
    H   1.0     0.895270     0.890329     0.691410  Biso 1.000000     H
    H   1.0     0.841285     0.042028     0.912142  Biso 1.000000     H
    H   1.0     0.747537     0.128255     0.871079  Biso 1.000000     H
    H   1.0     0.395244     0.463090     0.838048  Biso 1.000000     H
    H   1.0     0.300255     0.583947     0.866747  Biso 1.000000     H
    H   1.0     0.278616     0.533313     0.641022  Biso 1.000000     H
    H   1.0     0.371671     0.411632     0.612118  Biso 1.000000     H
    H   1.0     0.837539     0.153008     0.148516  Biso 1.000000     H
    H   1.0     0.832986     0.250201     0.147467  Biso 1.000000     H
    H   1.0     0.941924     0.167170     0.365583  Biso 1.000000     H
    H   1.0     0.027181     0.168624     0.470727  Biso 1.000000     H
    H   1.0     0.100998     0.412119     0.509729  Biso 1.000000     H
    H   1.0     0.013731     0.399752     0.402162  Biso 1.000000     H
    H   1.0     0.172259     0.098916     0.510306  Biso 1.000000     H
    H   1.0     0.177703     0.146465     0.447850  Biso 1.000000     H
    H   1.0     0.270551     0.138394     0.494786  Biso 1.000000     H
    H   1.0     0.098351     0.457468     0.720065  Biso 1.000000     H
    H   1.0     0.121645     0.476378     0.642501  Biso 1.000000     H
    H   1.0     0.024242     0.427622     0.646980  Biso 1.000000     H
    H   1.0     0.298967     0.159651     0.610057  Biso 1.000000     H
    H   1.0     0.316403     0.247779     0.690158  Biso 1.000000     H
    H   1.0     0.245594     0.324499     0.820255  Biso 1.000000     H
    H   1.0     0.260971     0.267068     0.873712  Biso 1.000000     H
    H   1.0     0.332340     0.255668     0.802083  Biso 1.000000     H
    H   1.0     0.088247     0.973714     0.696080  Biso 1.000000     H
    H   1.0     0.002546     0.043764     0.720206  Biso 1.000000     H
    H   1.0     0.045552     0.007318     0.631056  Biso 1.000000     H
    H   1.0     0.119995     0.284702     0.902162  Biso 1.000000     H
    H   1.0     0.062678     0.289371     0.000000  Biso 1.000000     H
    H   1.0     0.034224     0.041294     0.936082  Biso 1.000000     H
    H   1.0     0.096270     0.025960     0.819308  Biso 1.000000     H
    H   1.0     0.697663     0.978032     0.150784  Biso 1.000000     H
    H   1.0     0.605721     0.889674     0.191837  Biso 1.000000     H
    H   1.0     0.658286     0.042844     0.412509  Biso 1.000000     H
    H   1.0     0.751674     0.129120     0.371264  Biso 1.000000     H
    H   1.0     0.104995     0.462779     0.337716  Biso 1.000000     H
    H   1.0     0.199988     0.583609     0.366355  Biso 1.000000     H
    H   1.0     0.221210     0.532870     0.140601  Biso 1.000000     H
    H   1.0     0.128147     0.411230     0.111765  Biso 1.000000     H
    H   1.0     0.337667     0.846826     0.351341  Biso 1.000000     H
    H   1.0     0.333221     0.749604     0.352198  Biso 1.000000     H
    H   1.0     0.442352     0.833151     0.134683  Biso 1.000000     H
    H   1.0     0.527610     0.831846     0.029695  Biso 1.000000     H
    H   1.0     0.600746     0.588027    -0.009889  Biso 1.000000     H
    H   1.0     0.513511     0.600256     0.097559  Biso 1.000000     H
    H   1.0     0.672556     0.901461    -0.009801  Biso 1.000000     H
    H   1.0     0.678039     0.853714     0.052496  Biso 1.000000     H
    H   1.0     0.770842     0.861814     0.005618  Biso 1.000000     H
    H   1.0     0.598073     0.543147     0.779984  Biso 1.000000     H
    H   1.0     0.621676     0.523958     0.857378  Biso 1.000000     H
    H   1.0     0.524227     0.572829     0.853169  Biso 1.000000     H
    H   1.0     0.798983     0.840877     0.890358  Biso 1.000000     H
    H   1.0     0.816572     0.752670     0.810372  Biso 1.000000     H
    H   1.0     0.746143     0.675732     0.680178  Biso 1.000000     H
    H   1.0     0.761613     0.733009     0.626610  Biso 1.000000     H
    H   1.0     0.832845     0.744608     0.698421  Biso 1.000000     H
    H   1.0     0.588209     0.026234     0.803508  Biso 1.000000     H
    H   1.0     0.502646     0.956037     0.779080  Biso 1.000000     H
    H   1.0     0.545294     0.992603     0.868398  Biso 1.000000     H
    H   1.0     0.620805     0.715236     0.597636  Biso 1.000000     H
    H   1.0     0.563575     0.710433     0.481086  Biso 1.000000     H
    H   1.0     0.534650     0.958458     0.563470  Biso 1.000000     H
    H   1.0     0.596566     0.973927     0.680384  Biso 1.000000     H
    H   1.0     0.197209     0.021495     0.349391  Biso 1.000000     H
    H   1.0     0.104751     0.109683     0.308478  Biso 1.000000     H
    H   1.0     0.158724     0.957915     0.087760  Biso 1.000000     H
    H   1.0     0.252468     0.871710     0.128854  Biso 1.000000     H
    H   1.0     0.604761     0.536920     0.161915  Biso 1.000000     H
    H   1.0     0.699747     0.416062     0.133215  Biso 1.000000     H
    H   1.0     0.721386     0.466694     0.358940  Biso 1.000000     H
    H   1.0     0.628333     0.588375     0.387844  Biso 1.000000     H
    C   1.0     0.020759     0.780362     0.601330  Biso 1.000000     C
    C   1.0     0.972661     0.779045     0.543071  Biso 1.000000     C
    C   1.0     0.925643     0.709907     0.501020  Biso 1.000000     C
    C   1.0     0.933296     0.643467     0.520377  Biso 1.000000     C
    C   1.0     0.982076     0.649691     0.580026  Biso 1.000000     C
    C   1.0     0.872229     0.708952     0.441334  Biso 1.000000     C
    C   1.0     0.820163     0.772064     0.441701  Biso 1.000000     C
    C   1.0     0.799020     0.851224     0.500037  Biso 1.000000     C
    C   1.0     0.864129     0.647295     0.370194  Biso 1.000000     C
    C   1.0     0.907367     0.567440     0.338882  Biso 1.000000     C
    C   1.0     0.732216     0.791703     0.345188  Biso 1.000000     C
    C   1.0     0.790031     0.800243     0.231380  Biso 1.000000     C
    C   1.0     0.735276     0.734557     0.181097  Biso 1.000000     C
    C   1.0     0.850904     0.850975     0.219770  Biso 1.000000     C
    C   1.0     0.875137     0.906729     0.290514  Biso 1.000000     C
    C   1.0     0.938262     0.973922     0.311588  Biso 1.000000     C
    C   1.0     0.884852     0.845714     0.150869  Biso 1.000000     C
    C   1.0     0.895673     0.771082     0.092190  Biso 1.000000     C
    C   1.0     0.929314     0.767519     0.027493  Biso 1.000000     C
    C   1.0     0.944889     0.906038     0.072921  Biso 1.000000     C
    C   1.0     0.910997     0.914026     0.138979  Biso 1.000000     C
    C   1.0     0.211179     0.891853     0.766653  Biso 1.000000     C
    C   1.0     0.269598     0.941840     0.741477  Biso 1.000000     C
    C   1.0     0.311692     0.008769     0.792103  Biso 1.000000     C
    C   1.0     0.362774     0.057216     0.769342  Biso 1.000000     C
    C   1.0     0.373992     0.038788     0.695405  Biso 1.000000     C
    C   1.0     0.333320     0.970831     0.644714  Biso 1.000000     C
    C   1.0     0.281275     0.923040     0.667597  Biso 1.000000     C
    C   1.0     0.425339     0.093699     0.671489  Biso 1.000000     C
    C   1.0     0.943486     0.643970     0.793603  Biso 1.000000     C
    C   1.0     0.889363     0.570242     0.776881  Biso 1.000000     C
    C   1.0     0.869249     0.521338     0.705053  Biso 1.000000     C
    C   1.0     0.816637     0.454540     0.689128  Biso 1.000000     C
    C   1.0     0.783434     0.435140     0.744896  Biso 1.000000     C
    C   1.0     0.724764     0.364103     0.727670  Biso 1.000000     C
    C   1.0     0.804538     0.483266     0.816647  Biso 1.000000     C
    C   1.0     0.856550     0.550413     0.832501  Biso 1.000000     C
    C   1.0     0.520455     0.219362     0.898391  Biso 1.000000     C
    C   1.0     0.472366     0.220607     0.956581  Biso 1.000000     C
    C   1.0     0.425541     0.289794     0.998763  Biso 1.000000     C
    C   1.0     0.433382     0.356353     0.979597  Biso 1.000000     C
    C   1.0     0.482137     0.350206     0.920007  Biso 1.000000     C
    C   1.0     0.372149     0.290698     0.058388  Biso 1.000000     C
    C   1.0     0.320030     0.227585     0.057921  Biso 1.000000     C
    C   1.0     0.298758     0.148504     0.999490  Biso 1.000000     C
    C   1.0     0.364124     0.352286     0.129565  Biso 1.000000     C
    C   1.0     0.407431     0.432110     0.160987  Biso 1.000000     C
    C   1.0     0.232119     0.207847     0.154330  Biso 1.000000     C
    C   1.0     0.289639     0.199563     0.268384  Biso 1.000000     C
    C   1.0     0.234733     0.265234     0.318437  Biso 1.000000     C
    C   1.0     0.350530     0.148987     0.280255  Biso 1.000000     C
    C   1.0     0.375039     0.093235     0.209615  Biso 1.000000     C
    C   1.0     0.438292     0.026167     0.188819  Biso 1.000000     C
    C   1.0     0.384315     0.154363     0.349280  Biso 1.000000     C
    C   1.0     0.394929     0.229026     0.407972  Biso 1.000000     C
    C   1.0     0.428515     0.232675     0.472751  Biso 1.000000     C
    C   1.0     0.444370     0.094186     0.427397  Biso 1.000000     C
    C   1.0     0.410545     0.086118     0.361261  Biso 1.000000     C
    C   1.0     0.710699     0.107911     0.733082  Biso 1.000000     C
    C   1.0     0.769319     0.058006     0.758262  Biso 1.000000     C
    C   1.0     0.811918     0.991479     0.707588  Biso 1.000000     C
    C   1.0     0.863312     0.943120     0.730259  Biso 1.000000     C
    C   1.0     0.874328     0.961178     0.804165  Biso 1.000000     C
    C   1.0     0.833069     0.028678     0.854910  Biso 1.000000     C
    C   1.0     0.780769     0.076422     0.832113  Biso 1.000000     C
    C   1.0     0.926244     0.906391     0.827919  Biso 1.000000     C
    C   1.0     0.443521     0.356449     0.706648  Biso 1.000000     C
    C   1.0     0.389368     0.430156     0.723420  Biso 1.000000     C
    C   1.0     0.369382     0.479025     0.795261  Biso 1.000000     C
    C   1.0     0.316775     0.545827     0.811221  Biso 1.000000     C
    C   1.0     0.283478     0.565250     0.755467  Biso 1.000000     C
    C   1.0     0.224808     0.636262     0.772692  Biso 1.000000     C
    C   1.0     0.304453     0.517162     0.683705  Biso 1.000000     C
    C   1.0     0.356455     0.450011     0.667817  Biso 1.000000     C
    C   1.0     0.979288     0.219623     0.398604  Biso 1.000000     C
    C   1.0     0.027377     0.220943     0.456869  Biso 1.000000     C
    C   1.0     0.074384     0.290085     0.498927  Biso 1.000000     C
    C   1.0     0.066730     0.356526     0.479573  Biso 1.000000     C
    C   1.0     0.017960     0.350301     0.419918  Biso 1.000000     C
    C   1.0     0.127789     0.291040     0.558619  Biso 1.000000     C
    C   1.0     0.179854     0.227928     0.558253  Biso 1.000000     C
    C   1.0     0.201002     0.148769     0.499917  Biso 1.000000     C
    C   1.0     0.135883     0.352696     0.629759  Biso 1.000000     C
    C   1.0     0.092643     0.432549     0.661072  Biso 1.000000     C
    C   1.0     0.267798     0.208290     0.654768  Biso 1.000000     C
    C   1.0     0.209990     0.199748     0.768577  Biso 1.000000     C
    C   1.0     0.264750     0.265431     0.818859  Biso 1.000000     C
    C   1.0     0.149116     0.149017     0.780189  Biso 1.000000     C
    C   1.0     0.124880     0.093265     0.709445  Biso 1.000000     C
    C   1.0     0.061751     0.026076     0.688373  Biso 1.000000     C
    C   1.0     0.115168     0.154281     0.849090  Biso 1.000000     C
    C   1.0     0.104349     0.228916     0.907766  Biso 1.000000     C
    C   1.0     0.070707     0.232484     0.972465  Biso 1.000000     C
    C   1.0     0.055130     0.093965     0.927043  Biso 1.000000     C
    C   1.0     0.089021     0.085972     0.860983  Biso 1.000000     C
    C   1.0     0.788923     0.108113     0.233292  Biso 1.000000     C
    C   1.0     0.730469     0.058163     0.258485  Biso 1.000000     C
    C   1.0     0.688355     0.991241     0.207864  Biso 1.000000     C
    C   1.0     0.637260     0.942805     0.230628  Biso 1.000000     C
    C   1.0     0.626035     0.961239     0.304565  Biso 1.000000     C
    C   1.0     0.666712     0.029196     0.355252  Biso 1.000000     C
    C   1.0     0.718777     0.076973     0.332366  Biso 1.000000     C
    C   1.0     0.574678     0.906329     0.328478  Biso 1.000000     C
    C   1.0     0.056526     0.356053     0.206353  Biso 1.000000     C
    C   1.0     0.110651     0.429780     0.223077  Biso 1.000000     C
    C   1.0     0.130767     0.478680     0.294906  Biso 1.000000     C
    C   1.0     0.183377     0.545481     0.310835  Biso 1.000000     C
    C   1.0     0.216576     0.564887     0.255069  Biso 1.000000     C
    C   1.0     0.275243     0.635929     0.272301  Biso 1.000000     C
    C   1.0     0.195470     0.516766     0.183317  Biso 1.000000     C
    C   1.0     0.143461     0.449615     0.167459  Biso 1.000000     C
    C   1.0     0.479580     0.780663     0.101582  Biso 1.000000     C
    C   1.0     0.527670     0.779418     0.043393  Biso 1.000000     C
    C   1.0     0.574487     0.710227     0.001206  Biso 1.000000     C
    C   1.0     0.566639     0.643667     0.020369  Biso 1.000000     C
    C   1.0     0.517883     0.649815     0.079959  Biso 1.000000     C
    C   1.0     0.627876     0.709319     0.941579  Biso 1.000000     C
    C   1.0     0.679999     0.772428     0.942041  Biso 1.000000     C
    C   1.0     0.701278     0.851509     0.000468  Biso 1.000000     C
    C   1.0     0.635891     0.647730     0.870401  Biso 1.000000     C
    C   1.0     0.592576     0.567910     0.838984  Biso 1.000000     C
    C   1.0     0.767898     0.792159     0.845622  Biso 1.000000     C
    C   1.0     0.710372     0.800447     0.731571  Biso 1.000000     C
    C   1.0     0.765277     0.734777     0.681514  Biso 1.000000     C
    C   1.0     0.649482     0.851025     0.719703  Biso 1.000000     C
    C   1.0     0.624974     0.906774     0.790345  Biso 1.000000     C
    C   1.0     0.561723     0.973843     0.811142  Biso 1.000000     C
    C   1.0     0.615695     0.845652     0.650680  Biso 1.000000     C
    C   1.0     0.605075     0.770988     0.591988  Biso 1.000000     C
    C   1.0     0.571488     0.767340     0.527211  Biso 1.000000     C
    C   1.0     0.555642     0.905830     0.572563  Biso 1.000000     C
    C   1.0     0.589468     0.913898     0.638698  Biso 1.000000     C
    C   1.0     0.289304     0.892098     0.266858  Biso 1.000000     C
    C   1.0     0.230685     0.941992     0.241665  Biso 1.000000     C
    C   1.0     0.188090     0.008531     0.292327  Biso 1.000000     C
    C   1.0     0.136703     0.056881     0.269639  Biso 1.000000     C
    C   1.0     0.125689     0.038798     0.195727  Biso 1.000000     C
    C   1.0     0.166939     0.971283     0.144995  Biso 1.000000     C
    C   1.0     0.219236     0.923551     0.167809  Biso 1.000000     C
    C   1.0     0.073800     0.093576     0.171948  Biso 1.000000     C
    C   1.0     0.556483     0.643563     0.293316  Biso 1.000000     C
    C   1.0     0.610635     0.569854     0.276543  Biso 1.000000     C
    C   1.0     0.630623     0.520985     0.204703  Biso 1.000000     C
    C   1.0     0.683230     0.454183     0.188742  Biso 1.000000     C
    C   1.0     0.716526     0.434756     0.244495  Biso 1.000000     C
    C   1.0     0.775193     0.363739     0.227267  Biso 1.000000     C
    C   1.0     0.695551     0.482845     0.316257  Biso 1.000000     C
    C   1.0     0.643549     0.549997     0.332145  Biso 1.000000     C
    N   1.0     0.025049     0.717128     0.620772  Biso 1.000000     N
    N   1.0     0.784719     0.745913     0.374430  Biso 1.000000     N
    N   1.0     0.812181     0.670891     0.329575  Biso 1.000000     N
    N   1.0     0.834136     0.890907     0.341478  Biso 1.000000     N
    N   1.0     0.781893     0.827036     0.304469  Biso 1.000000     N
    N   1.0     0.954117     0.833897     0.017108  Biso 1.000000     N
    N   1.0     0.524928     0.282724     0.879136  Biso 1.000000     N
    N   1.0     0.284650     0.253662     0.125172  Biso 1.000000     N
    N   1.0     0.312178     0.328644     0.170105  Biso 1.000000     N
    N   1.0     0.334166     0.108908     0.158473  Biso 1.000000     N
    N   1.0     0.281738     0.172679     0.195257  Biso 1.000000     N
    N   1.0     0.453436     0.166360     0.483206  Biso 1.000000     N
    N   1.0     0.974997     0.282860     0.379164  Biso 1.000000     N
    N   1.0     0.215291     0.254078     0.625527  Biso 1.000000     N
    N   1.0     0.187827     0.329098     0.670380  Biso 1.000000     N
    N   1.0     0.165879     0.109087     0.658480  Biso 1.000000     N
    N   1.0     0.218125     0.172955     0.695487  Biso 1.000000     N
    N   1.0     0.045903     0.166108     0.982853  Biso 1.000000     N
    N   1.0     0.475099     0.717299     0.120833  Biso 1.000000     N
    N   1.0     0.715371     0.746347     0.874787  Biso 1.000000     N
    N   1.0     0.687834     0.671367     0.829857  Biso 1.000000     N
    N   1.0     0.665846     0.891097     0.841485  Biso 1.000000     N
    N   1.0     0.718272     0.827325     0.804697  Biso 1.000000     N
    N   1.0     0.546571     0.833656     0.516755  Biso 1.000000     N
    O   1.0     0.211090     0.906149     0.833694  Biso 1.000000     O
    O   1.0     0.165046     0.839612     0.718160  Biso 1.000000     O
    O   1.0     0.452295     0.159823     0.717928  Biso 1.000000     O
    O   1.0     0.436793     0.071984     0.602728  Biso 1.000000     O
    O   1.0     0.944936     0.693727     0.860024  Biso 1.000000     O
    O   1.0    -0.018482     0.652493     0.741582  Biso 1.000000     O
    O   1.0     0.715016     0.318888     0.661048  Biso 1.000000     O
    O   1.0     0.689043     0.355021     0.780984  Biso 1.000000     O
    O   1.0     0.126237     0.799990     0.855962  Biso 1.000000     O
    O   1.0     0.711118     0.094063     0.666134  Biso 1.000000     O
    O   1.0     0.663864     0.159583     0.781375  Biso 1.000000     O
    O   1.0     0.954748     0.841190     0.781253  Biso 1.000000     O
    O   1.0     0.936590     0.927427     0.896758  Biso 1.000000     O
    O   1.0     0.444958     0.306764     0.640219  Biso 1.000000     O
    O   1.0     0.481641     0.347931     0.758679  Biso 1.000000     O
    O   1.0     0.215057     0.681399     0.839332  Biso 1.000000     O
    O   1.0     0.189083     0.645408     0.719389  Biso 1.000000     O
    O   1.0     0.626013     0.200289     0.644256  Biso 1.000000     O
    O   1.0     0.788906     0.093880     0.166264  Biso 1.000000     O
    O   1.0     0.835199     0.160251     0.281744  Biso 1.000000     O
    O   1.0     0.547716     0.840210     0.282033  Biso 1.000000     O
    O   1.0     0.563223     0.928035     0.397239  Biso 1.000000     O
    O   1.0     0.055074     0.306295     0.139933  Biso 1.000000     O
    O   1.0     0.000000     0.347535     0.258376  Biso 1.000000     O
    O   1.0     0.284995     0.681135     0.338925  Biso 1.000000     O
    O   1.0     0.310956     0.645021     0.218989  Biso 1.000000     O
    O   1.0     0.873776     0.200026     0.143995  Biso 1.000000     O
    O   1.0     0.288892     0.905964     0.333809  Biso 1.000000     O
    O   1.0     0.336132     0.840415     0.218567  Biso 1.000000     O
    O   1.0     0.045384     0.158838     0.218589  Biso 1.000000     O
    O   1.0     0.063385     0.072487     0.103112  Biso 1.000000     O
    O   1.0     0.555048     0.693249     0.359744  Biso 1.000000     O
    O   1.0     0.518366     0.652084     0.241286  Biso 1.000000     O
    O   1.0     0.784944     0.318610     0.160625  Biso 1.000000     O
    O   1.0     0.810914     0.354580     0.280566  Biso 1.000000     O
    O   1.0     0.373992     0.799743     0.355713  Biso 1.000000     O
   Cd   1.0     0.085969     0.739176     0.731907  Biso 1.000000    Cd
   Cd   1.0    -0.002032     0.818703     0.904511  Biso 1.000000    Cd
   Cd   1.0     0.585923     0.261140     0.768226  Biso 1.000000    Cd
   Cd   1.0     0.497464     0.181605     0.595837  Biso 1.000000    Cd
   Cd   1.0     0.914066     0.260833     0.268040  Biso 1.000000    Cd
   Cd   1.0     0.000000     0.181306     0.095453  Biso 1.000000    Cd
   Cd   1.0     0.414088     0.738883     0.231738  Biso 1.000000    Cd
   Cd   1.0     0.502548     0.818412     0.404124  Biso 1.000000    Cd
