#======================================================================

# CRYSTAL DATA

#----------------------------------------------------------------------

data_VESTA_phase_1


_pd_phase_name                         MOF
_cell_length_a                         12.07400
_cell_length_b                         16.17200
_cell_length_c                         16.17200
_cell_angle_alpha                      65.97700
_cell_angle_beta                       75.59000
_cell_angle_gamma                      104.41000
_symmetry_space_group_name_H-M         "P 1"
_symmetry_Int_Tables_number            1

loop_
_symmetry_equiv_pos_as_xyz
   "x, y, z"

loop_
   _atom_site_label
   _atom_site_occupancy
   _atom_site_fract_x
   _atom_site_fract_y
   _atom_site_fract_z
   _atom_site_adp_type
   _atom_site_B_iso_or_equiv
   _atom_site_type_symbol
    H   1.0     0.127871     0.756752     0.705522  Biso 1.000000     H
    H   1.0     0.805813     0.699558     0.647112  Biso 1.000000     H
    H   1.0     0.375129     0.628288     0.750679  Biso 1.000000     H
    H   1.0     0.858369     0.631908     0.719679  Biso 1.000000     H
    H   1.0     0.242850     0.752095     0.631135  Biso 1.000000     H
    H   1.0     0.499402     0.700256     0.747992  Biso 1.000000     H
    H   1.0     0.000000     0.634183     0.586170  Biso 1.000000     H
    H   1.0     0.169493     0.713851     0.389487  Biso 1.000000     H
    H   1.0     0.338556     0.531896     0.377658  Biso 1.000000     H
    H   1.0     0.445890     0.632652     0.262729  Biso 1.000000     H
    H   1.0     0.401429     0.750364     0.317656  Biso 1.000000     H
    H   1.0     0.460798     0.673160     0.391067  Biso 1.000000     H
    H   1.0     0.580012     0.574408     0.898566  Biso 1.000000     H
    H   1.0     0.554668     0.382936     0.000000  Biso 1.000000     H
    H   1.0     0.715361     0.388068     0.132072  Biso 1.000000     H
    H   1.0     0.676127     0.262413     0.170871  Biso 1.000000     H
    H   1.0     0.704053     0.313958     0.000000  Biso 1.000000     H
    H   1.0     0.857864     0.392362     0.000000  Biso 1.000000     H
    H   1.0     0.420179     0.887228     0.625727  Biso 1.000000     H
    H   1.0     0.506418     0.999961     0.707582  Biso 1.000000     H
    H   1.0     0.837745     0.143846     0.527744  Biso 1.000000     H
    H   1.0     0.849364     0.163071     0.625068  Biso 1.000000     H
    H   1.0     0.699378     0.000000     0.747727  Biso 1.000000     H
    H   1.0     0.831202     0.000000     0.677792  Biso 1.000000     H
    H   1.0     0.000000     0.898390     0.568559  Biso 1.000000     H
    H   1.0     0.076095     0.998737     0.375447  Biso 1.000000     H
    H   1.0     0.842158     0.130146     0.384807  Biso 1.000000     H
    H   1.0     0.867505     0.149671     0.265265  Biso 1.000000     H
    H   1.0     0.923168     0.000000     0.309238  Biso 1.000000     H
    H   1.0     0.775214     0.000000     0.387141  Biso 1.000000     H
    H   1.0     0.218287     0.638668     0.882238  Biso 1.000000     H
    H   1.0     0.145027     0.732102     0.985820  Biso 1.000000     H
    H   1.0     0.732555     0.532515     0.135390  Biso 1.000000     H
    H   1.0     0.732496     0.638595     0.141026  Biso 1.000000     H
    H   1.0     0.962058     0.775574     0.000000  Biso 1.000000     H
    H   1.0     0.823568     0.697278     0.000000  Biso 1.000000     H
    H   1.0     0.589828     0.563607     0.631901  Biso 1.000000     H
    H   1.0     0.416914     0.370962     0.713860  Biso 1.000000     H
    H   1.0     0.209662     0.391357     0.532365  Biso 1.000000     H
    H   1.0     0.129174     0.267077     0.625704  Biso 1.000000     H
    H   1.0     0.196902     0.302542     0.744549  Biso 1.000000     H
    H   1.0     0.122272     0.380192     0.694276  Biso 1.000000     H
    H   1.0     0.083051     0.426331     0.458577  Biso 1.000000     H
    H   1.0     0.932083     0.346652     0.655263  Biso 1.000000     H
    H   1.0     0.763004     0.528607     0.667093  Biso 1.000000     H
    H   1.0     0.655678     0.427851     0.782025  Biso 1.000000     H
    H   1.0     0.700153     0.310139     0.727104  Biso 1.000000     H
    H   1.0     0.640769     0.387330     0.653696  Biso 1.000000     H
    H   1.0     0.521547     0.486111     0.146197  Biso 1.000000     H
    H   1.0     0.546887     0.677580     0.023460  Biso 1.000000     H
    H   1.0     0.386197     0.672444     0.912683  Biso 1.000000     H
    H   1.0     0.425428     0.798099     0.873886  Biso 1.000000     H
    H   1.0     0.397499     0.746552    -0.020363  Biso 1.000000     H
    H   1.0     0.243690     0.668145     0.011039  Biso 1.000000     H
    H   1.0     0.681376     0.173284     0.419018  Biso 1.000000     H
    H   1.0     0.595120     0.060548     0.337170  Biso 1.000000     H
    H   1.0     0.263801     0.916667     0.517024  Biso 1.000000     H
    H   1.0     0.252162     0.897440     0.419705  Biso 1.000000     H
    H   1.0     0.402147     0.032531     0.297036  Biso 1.000000     H
    H   1.0     0.270331     0.040079     0.366977  Biso 1.000000     H
    H   1.0     0.032419     0.162134     0.476211  Biso 1.000000     H
    H   1.0     0.000000     0.061770     0.669322  Biso 1.000000     H
    H   1.0     0.259404     0.930365     0.659949  Biso 1.000000     H
    H   1.0     0.234058     0.910836     0.779491  Biso 1.000000     H
    H   1.0     0.178390     0.037024     0.735527  Biso 1.000000     H
    H   1.0     0.326344     0.057287     0.657619  Biso 1.000000     H
    H   1.0     0.883269     0.421826     0.162524  Biso 1.000000     H
    H   1.0     0.956538     0.328393     0.058945  Biso 1.000000     H
    H   1.0     0.369003     0.527997     0.909370  Biso 1.000000     H
    H   1.0     0.369072     0.421921     0.903728  Biso 1.000000     H
    H   1.0     0.139515     0.284933     0.032415  Biso 1.000000     H
    H   1.0     0.278002     0.363233     0.025102  Biso 1.000000     H
    H   1.0     0.511743     0.496912     0.412855  Biso 1.000000     H
    H   1.0     0.684664     0.689554     0.330897  Biso 1.000000     H
    H   1.0     0.891890     0.669160     0.512400  Biso 1.000000     H
    H   1.0     0.972386     0.793438     0.419058  Biso 1.000000     H
    H   1.0     0.904676     0.757968     0.300208  Biso 1.000000     H
    H   1.0     0.979299     0.680317     0.350494  Biso 1.000000     H
    H   1.0     0.973691     0.303756     0.339236  Biso 1.000000     H
    H   1.0     0.295730     0.360962     0.397640  Biso 1.000000     H
    H   1.0     0.726430     0.432227     0.294075  Biso 1.000000     H
    H   1.0     0.243181     0.428613     0.325068  Biso 1.000000     H
    H   1.0     0.858713     0.308415     0.413623  Biso 1.000000     H
    H   1.0     0.602158     0.360260     0.296759  Biso 1.000000     H
    C   1.0     0.254262     0.585672     0.556423  Biso 1.000000     C
    C   1.0     0.096042     0.627665     0.555482  Biso 1.000000     C
    C   1.0     0.174660     0.670268     0.458816  Biso 1.000000     C
    C   1.0     0.358634     0.608396     0.324623  Biso 1.000000     C
    C   1.0     0.256349     0.609508     0.283947  Biso 1.000000     C
    C   1.0     0.381068     0.673866     0.370349  Biso 1.000000     C
    C   1.0     0.811106     0.560614     0.958768  Biso 1.000000     C
    C   1.0     0.641993     0.548715     0.930418  Biso 1.000000     C
    C   1.0     0.629355     0.454317     0.988340  Biso 1.000000     C
    C   1.0     0.656254     0.326311     0.129471  Biso 1.000000     C
    C   1.0     0.519943     0.302843     0.185394  Biso 1.000000     C
    C   1.0     0.691338     0.348163     0.023077  Biso 1.000000     C
    C   1.0     0.709428     0.947636     0.587183  Biso 1.000000     C
    C   1.0     0.512441     0.918995     0.622318  Biso 1.000000     C
    C   1.0     0.551413     0.970614     0.666307  Biso 1.000000     C
    C   1.0     0.783116     0.125889     0.602652  Biso 1.000000     C
    C   1.0     0.686851     0.172551     0.598584  Biso 1.000000     C
    C   1.0     0.730448     0.014875     0.673336  Biso 1.000000     C
    C   1.0     0.832710     0.948340     0.550442  Biso 1.000000     C
    C   1.0     0.000000     0.925292     0.541237  Biso 1.000000     C
    C   1.0     0.000000     0.971264     0.446537  Biso 1.000000     C
    C   1.0     0.892662     0.116503     0.328487  Biso 1.000000     C
    C   1.0     0.024443     0.171917     0.294139  Biso 1.000000     C
    C   1.0     0.850063     0.005877     0.366372  Biso 1.000000     C
    C   1.0     0.936594     0.599004     0.954026  Biso 1.000000     C
    C   1.0     0.127332     0.636029     0.916505  Biso 1.000000     C
    C   1.0     0.094632     0.685577     0.963426  Biso 1.000000     C
    C   1.0     0.792187     0.609522     0.107533  Biso 1.000000     C
    C   1.0     0.895851     0.611562     0.146842  Biso 1.000000     C
    C   1.0     0.835792     0.669410    -0.004396  Biso 1.000000     C
    C   1.0     0.341116     0.547284     0.590710  Biso 1.000000     C
    C   1.0     0.500219     0.536926     0.628837  Biso 1.000000     C
    C   1.0     0.415271     0.442207     0.671678  Biso 1.000000     C
    C   1.0     0.212398     0.333916     0.597170  Biso 1.000000     C
    C   1.0     0.326542     0.312295     0.563461  Biso 1.000000     C
    C   1.0     0.204451     0.362994     0.676661  Biso 1.000000     C
    C   1.0     0.847306     0.474836     0.488334  Biso 1.000000     C
    C   1.0     0.000000     0.432847     0.489268  Biso 1.000000     C
    C   1.0     0.926913     0.390237     0.585935  Biso 1.000000     C
    C   1.0     0.742934     0.452110     0.720129  Biso 1.000000     C
    C   1.0     0.845223     0.451010     0.760801  Biso 1.000000     C
    C   1.0     0.720504     0.386634     0.674409  Biso 1.000000     C
    C   1.0     0.290454     0.499897     0.085990  Biso 1.000000     C
    C   1.0     0.459566     0.511801     0.114343  Biso 1.000000     C
    C   1.0     0.472202     0.606198     0.056417  Biso 1.000000     C
    C   1.0     0.445303     0.734201     0.915285  Biso 1.000000     C
    C   1.0     0.581614     0.757670     0.859362  Biso 1.000000     C
    C   1.0     0.410217     0.712346     0.000000  Biso 1.000000     C
    C   1.0     0.392124     0.112880     0.457574  Biso 1.000000     C
    C   1.0     0.589112     0.141518     0.422430  Biso 1.000000     C
    C   1.0     0.550130     0.089897     0.378446  Biso 1.000000     C
    C   1.0     0.318419     0.934623     0.442115  Biso 1.000000     C
    C   1.0     0.414688     0.887965     0.446169  Biso 1.000000     C
    C   1.0     0.371085     0.000000     0.371428  Biso 1.000000     C
    C   1.0     0.268845     0.112179     0.494320  Biso 1.000000     C
    C   1.0     0.096707     0.135229     0.503530  Biso 1.000000     C
    C   1.0     0.089411     0.089248     0.598230  Biso 1.000000     C
    C   1.0     0.208899     0.944005     0.716271  Biso 1.000000     C
    C   1.0     0.000000     0.888588     0.750620  Biso 1.000000     C
    C   1.0     0.251495     0.000000     0.678389  Biso 1.000000     C
    C   1.0     0.164966     0.461502     0.090733  Biso 1.000000     C
    C   1.0     0.974227     0.424468     0.128256  Biso 1.000000     C
    C   1.0     0.000000     0.374921     0.081337  Biso 1.000000     C
    C   1.0     0.309377     0.450988     0.937225  Biso 1.000000     C
    C   1.0     0.205709     0.448944     0.897920  Biso 1.000000     C
    C   1.0     0.265776     0.391098     0.000000  Biso 1.000000     C
    C   1.0     0.760454     0.513227     0.454049  Biso 1.000000     C
    C   1.0     0.601353     0.523590     0.415920  Biso 1.000000     C
    C   1.0     0.686304     0.618308     0.373080  Biso 1.000000     C
    C   1.0     0.889161     0.726600     0.447590  Biso 1.000000     C
    C   1.0     0.775018     0.748226     0.481288  Biso 1.000000     C
    C   1.0     0.897120     0.697517     0.368101  Biso 1.000000     C
    N   1.0     0.145489     0.574963     0.615770  Biso 1.000000     N
    N   1.0     0.274388     0.643291     0.459465  Biso 1.000000     N
    N   1.0     0.754924     0.614637     0.912224  Biso 1.000000     N
    N   1.0     0.736146     0.461908     0.000000  Biso 1.000000     N
    N   1.0     0.610695     0.905126     0.572985  Biso 1.000000     N
    N   1.0     0.676208     0.988821     0.643914  Biso 1.000000     N
    N   1.0     0.893472     0.911163     0.605658  Biso 1.000000     N
    N   1.0     0.903127     0.985790     0.452417  Biso 1.000000     N
    N   1.0     0.000000     0.582163     0.911085  Biso 1.000000     N
    N   1.0     0.976811     0.661827     0.987490  Biso 1.000000     N
    N   1.0     0.453987     0.602002     0.578558  Biso 1.000000     N
    N   1.0     0.314941     0.448788     0.647411  Biso 1.000000     N
    N   1.0     0.956081     0.485550     0.428984  Biso 1.000000     N
    N   1.0     0.827182     0.417211     0.585291  Biso 1.000000     N
    N   1.0     0.346637     0.445877     0.132537  Biso 1.000000     N
    N   1.0     0.365412     0.598603     0.038455  Biso 1.000000     N
    N   1.0     0.490863     0.155390     0.471766  Biso 1.000000     N
    N   1.0     0.425335     0.071691     0.400844  Biso 1.000000     N
    N   1.0     0.208083     0.149362     0.439106  Biso 1.000000     N
    N   1.0     0.198428     0.074722     0.592347  Biso 1.000000     N
    N   1.0     0.069321     0.478340     0.133674  Biso 1.000000     N
    N   1.0     0.124752     0.398675     0.057271  Biso 1.000000     N
    N   1.0     0.647581     0.458511     0.466199  Biso 1.000000     N
    N   1.0     0.786632     0.611724     0.397347  Biso 1.000000     N
    O   1.0     0.220661     0.678411     0.262750  Biso 1.000000     O
    O   1.0     0.212668     0.533315     0.274286  Biso 1.000000     O
    O   1.0     0.435401     0.258185     0.167167  Biso 1.000000     O
    O   1.0     0.496634     0.330592     0.249103  Biso 1.000000     O
    O   1.0     0.583833     0.132885     0.668589  Biso 1.000000     O
    O   1.0     0.722687     0.254807     0.517448  Biso 1.000000     O
    O   1.0     0.101532     0.144840     0.256089  Biso 1.000000     O
    O   1.0     0.056953     0.246251     0.307596  Biso 1.000000     O
    O   1.0     0.000000     0.679874     0.097927  Biso 1.000000     O
    O   1.0     0.863075     0.536824     0.233704  Biso 1.000000     O
    O   1.0     0.368638     0.269469     0.625626  Biso 1.000000     O
    O   1.0     0.376557     0.339596     0.472145  Biso 1.000000     O
    O   1.0     0.175204     0.716085     0.698164  Biso 1.000000     O
    O   1.0     0.863136     0.699994     0.682045  Biso 1.000000     O
    O   1.0     0.441262     0.696069     0.714184  Biso 1.000000     O
    O   1.0     0.880923     0.382114     0.781995  Biso 1.000000     O
    O   1.0     0.888895     0.527205     0.770462  Biso 1.000000     O
    O   1.0     0.666156     0.802328     0.877589  Biso 1.000000     O
    O   1.0     0.604924     0.729921     0.795652  Biso 1.000000     O
    O   1.0     0.517693     0.927633     0.376150  Biso 1.000000     O
    O   1.0     0.378872     0.805714     0.527305  Biso 1.000000     O
    O   1.0     0.000000     0.915661     0.788677  Biso 1.000000     O
    O   1.0     0.000000     0.814258     0.737158  Biso 1.000000     O
    O   1.0     0.100698     0.380625     0.946833  Biso 1.000000     O
    O   1.0     0.238476     0.523687     0.811063  Biso 1.000000     O
    O   1.0     0.732927     0.791050     0.419117  Biso 1.000000     O
    O   1.0     0.724996     0.720928     0.572602  Biso 1.000000     O
    O   1.0     0.926358     0.344425     0.346594  Biso 1.000000     O
    O   1.0     0.238408     0.360526     0.362707  Biso 1.000000     O
    O   1.0     0.660298     0.364447     0.330567  Biso 1.000000     O
   Cd   1.0     0.069039     0.543256     0.781760  Biso 1.000000    Cd
   Cd   1.0     0.831311     0.781520     0.773893  Biso 1.000000    Cd
   Cd   1.0     0.548376     0.770479     0.542329  Biso 1.000000    Cd
   Cd   1.0     0.000000     0.517254     0.262995  Biso 1.000000    Cd
   Cd   1.0     0.270247     0.278994     0.270867  Biso 1.000000    Cd
   Cd   1.0     0.553180     0.290036     0.502422  Biso 1.000000    Cd
