#======================================================================

# CRYSTAL DATA

#----------------------------------------------------------------------

data_VESTA_phase_1


_pd_phase_name                         MOF
_cell_length_a                         11.44100
_cell_length_b                         19.47000
_cell_length_c                         19.41100
_cell_angle_alpha                      74.24300
_cell_angle_beta                       81.44200
_cell_angle_gamma                      81.13300
_symmetry_space_group_name_H-M         "P 1"
_symmetry_Int_Tables_number            1

loop_
_symmetry_equiv_pos_as_xyz
   "x, y, z"

loop_
   _atom_site_label
   _atom_site_occupancy
   _atom_site_fract_x
   _atom_site_fract_y
   _atom_site_fract_z
   _atom_site_adp_type
   _atom_site_B_iso_or_equiv
   _atom_site_type_symbol
    H   1.0     0.573561     0.580990     0.288005  Biso 1.000000     H
    H   1.0     0.000000     0.547589     0.281502  Biso 1.000000     H
    H   1.0     0.146567     0.534800     0.157864  Biso 1.000000     H
    H   1.0     0.654370     0.585091     0.160488  Biso 1.000000     H
    H   1.0     0.360577     0.481286     0.138476  Biso 1.000000     H
    H   1.0     0.833881     0.432255     0.168950  Biso 1.000000     H
    H   1.0     0.276290     0.482197     0.263533  Biso 1.000000     H
    H   1.0     0.771575     0.447499     0.292549  Biso 1.000000     H
    H   1.0     0.168128     0.914178     0.259597  Biso 1.000000     H
    H   1.0     0.637598     0.960302     0.203597  Biso 1.000000     H
    H   1.0     0.136942     0.924210     0.386306  Biso 1.000000     H
    H   1.0     0.607827     0.942332     0.336584  Biso 1.000000     H
    H   1.0     0.245277     0.041322     0.322756  Biso 1.000000     H
    H   1.0     0.772222     0.012563     0.360540  Biso 1.000000     H
    H   1.0     0.274484     0.055266     0.190752  Biso 1.000000     H
    H   1.0     0.803043    -0.000712     0.234851  Biso 1.000000     H
    H   1.0     0.329726     0.782852     0.065030  Biso 1.000000     H
    H   1.0     0.874887     0.742988     0.072903  Biso 1.000000     H
    H   1.0     0.384261     0.654156     0.069707  Biso 1.000000     H
    H   1.0     0.884310     0.613678     0.075686  Biso 1.000000     H
    H   1.0     0.247112     0.615618     0.976276  Biso 1.000000     H
    H   1.0     0.734534     0.696938     0.964886  Biso 1.000000     H
    H   1.0     0.237381     0.744239     0.975330  Biso 1.000000     H
    H   1.0     0.680699     0.825531     0.963646  Biso 1.000000     H
    H   1.0    -0.070775     0.718134     0.441410  Biso 1.000000     H
    H   1.0     0.431038     0.715814     0.418841  Biso 1.000000     H
    H   1.0     0.348709     0.842029     0.419067  Biso 1.000000     H
    H   1.0     0.865730     0.842099     0.450961  Biso 1.000000     H
    H   1.0     0.164160     0.831755     0.566650  Biso 1.000000     H
    H   1.0     0.655209     0.864297     0.512426  Biso 1.000000     H
    H   1.0     0.230959     0.707558     0.554473  Biso 1.000000     H
    H   1.0     0.740257     0.740551     0.507319  Biso 1.000000     H
    H   1.0     0.047276     0.424321     0.716185  Biso 1.000000     H
    H   1.0     0.571902     0.462817     0.714078  Biso 1.000000     H
    H   1.0     0.521267     0.459462     0.844117  Biso 1.000000     H
    H   1.0     0.990161     0.407879     0.848228  Biso 1.000000     H
    H   1.0     0.315468     0.485624     0.863774  Biso 1.000000     H
    H   1.0     0.839831     0.554165     0.839369  Biso 1.000000     H
    H   1.0     0.373272     0.499140     0.732120  Biso 1.000000     H
    H   1.0     0.891462     0.554844     0.709839  Biso 1.000000     H
    H   1.0     0.250942     0.078867     0.771724  Biso 1.000000     H
    H   1.0     0.725005     0.070216     0.801446  Biso 1.000000     H
    H   1.0     0.231275     0.069322     0.649023  Biso 1.000000     H
    H   1.0     0.741043     0.075938     0.672206  Biso 1.000000     H
    H   1.0     0.087146     0.952098     0.684670  Biso 1.000000     H
    H   1.0     0.594655     0.970168     0.631934  Biso 1.000000     H
    H   1.0     0.072448     0.948689     0.814045  Biso 1.000000     H
    H   1.0     0.613579     0.981337     0.754131  Biso 1.000000     H
    H   1.0     0.234252     0.187382     0.920128  Biso 1.000000     H
    H   1.0     0.744762     0.237683     0.915451  Biso 1.000000     H
    H   1.0     0.229924     0.313338     0.918615  Biso 1.000000     H
    H   1.0     0.773586     0.358419     0.926410  Biso 1.000000     H
    H   1.0     0.405824     0.389225     0.013474  Biso 1.000000     H
    H   1.0     0.902249     0.302871     0.061275  Biso 1.000000     H
    H   1.0     0.377415     0.269696    -0.000274  Biso 1.000000     H
    H   1.0     0.908478     0.174720     0.063969  Biso 1.000000     H
    H   1.0     0.433807     0.281853     0.547571  Biso 1.000000     H
    H   1.0     0.936369     0.278776     0.576683  Biso 1.000000     H
    H   1.0    -0.008219     0.147687     0.588456  Biso 1.000000     H
    H   1.0     0.482424     0.151093     0.554634  Biso 1.000000     H
    H   1.0     0.158127     0.154645     0.464928  Biso 1.000000     H
    H   1.0     0.684177     0.143931     0.486149  Biso 1.000000     H
    H   1.0     0.108157     0.284795     0.460996  Biso 1.000000     H
    H   1.0     0.626527     0.274276     0.478432  Biso 1.000000     H
    H   1.0     0.542153     0.417948     0.093749  Biso 1.000000     H
    H   1.0     0.000000     0.361959     0.111304  Biso 1.000000     H
    H   1.0     0.338212     0.104058     0.389643  Biso 1.000000     H
    H   1.0     0.868159     0.088543     0.421801  Biso 1.000000     H
    H   1.0     0.136075     0.560064     0.910218  Biso 1.000000     H
    H   1.0     0.655037     0.625315     0.897796  Biso 1.000000     H
    H   1.0    -0.017584     0.892475     0.629734  Biso 1.000000     H
    H   1.0     0.472913     0.900849     0.585585  Biso 1.000000     H
    C   1.0     0.359643     0.532728     0.356742  Biso 1.000000     C
    C   1.0     0.879833     0.509237     0.368195  Biso 1.000000     C
    C   1.0     0.418216     0.532944     0.282960  Biso 1.000000     C
    C   1.0     0.925196     0.497650     0.295808  Biso 1.000000     C
    C   1.0     0.526190     0.560651     0.254382  Biso 1.000000     C
    C   1.0     0.000000     0.521821     0.257346  Biso 1.000000     C
    C   1.0     0.571470     0.562389     0.183153  Biso 1.000000     C
    C   1.0     0.000000     0.514528     0.187466  Biso 1.000000     C
    C   1.0     0.512436     0.533935     0.140580  Biso 1.000000     C
    C   1.0     0.995564     0.481831     0.154322  Biso 1.000000     C
    C   1.0     0.406681     0.503852     0.170944  Biso 1.000000     C
    C   1.0     0.890324     0.456690     0.193862  Biso 1.000000     C
    C   1.0     0.359238     0.504382     0.240671  Biso 1.000000     C
    C   1.0     0.854910     0.465154     0.263103  Biso 1.000000     C
    C   1.0     0.558376     0.530756     0.065996  Biso 1.000000     C
    C   1.0     0.000000     0.473474     0.079973  Biso 1.000000     C
    C   1.0     0.003561     0.948789     0.164037  Biso 1.000000     C
    C   1.0     0.474073     0.000000     0.107810  Biso 1.000000     C
    C   1.0    -0.013182     0.954840     0.239934  Biso 1.000000     C
    C   1.0     0.458621     0.000000     0.188381  Biso 1.000000     C
    C   1.0     0.081187     0.934354     0.282606  Biso 1.000000     C
    C   1.0     0.551622     0.977499     0.230271  Biso 1.000000     C
    C   1.0     0.063513     0.940471     0.353202  Biso 1.000000     C
    C   1.0     0.534374     0.967518     0.304891  Biso 1.000000     C
    C   1.0     0.424825     0.991911     0.339465  Biso 1.000000     C
    C   1.0     0.952271     0.968621     0.382308  Biso 1.000000     C
    C   1.0     0.331596     0.000000     0.297053  Biso 1.000000     C
    C   1.0     0.858907     0.990525     0.338671  Biso 1.000000     C
    C   1.0     0.347589     0.000000     0.223000  Biso 1.000000     C
    C   1.0     0.875518     0.982957     0.268558  Biso 1.000000     C
    C   1.0    -0.064636     0.977172     0.456783  Biso 1.000000     C
    C   1.0     0.409789     0.992735     0.416664  Biso 1.000000     C
    C   1.0     0.474248     0.892646     0.006428  Biso 1.000000     C
    C   1.0     0.000000     0.828452     0.025009  Biso 1.000000     C
    C   1.0     0.501287     0.813320     0.013216  Biso 1.000000     C
    C   1.0     0.000000     0.751432     0.024671  Biso 1.000000     C
    C   1.0     0.419067     0.764085     0.044104  Biso 1.000000     C
    C   1.0     0.956393     0.714285     0.052610  Biso 1.000000     C
    C   1.0     0.450072     0.691407     0.046428  Biso 1.000000     C
    C   1.0     0.962081     0.642066     0.054058  Biso 1.000000     C
    C   1.0     0.066609     0.605430     0.026447  Biso 1.000000     C
    C   1.0     0.562819     0.665934     0.016525  Biso 1.000000     C
    C   1.0     0.165343     0.643322    -0.002246  Biso 1.000000     C
    C   1.0     0.645685     0.715430    -0.012881  Biso 1.000000     C
    C   1.0     0.160477     0.715295    -0.002794  Biso 1.000000     C
    C   1.0     0.615879     0.787581    -0.013859  Biso 1.000000     C
    C   1.0     0.589298     0.590738     0.009836  Biso 1.000000     C
    C   1.0     0.000000     0.530192     0.022226  Biso 1.000000     C
    C   1.0     0.130613     0.630934     0.489116  Biso 1.000000     C
    C   1.0     0.650785     0.647260     0.460849  Biso 1.000000     C
    C   1.0     0.084149     0.703951     0.498198  Biso 1.000000     C
    C   1.0     0.592301     0.720919     0.461603  Biso 1.000000     C
    C   1.0    -0.019276     0.742404     0.469410  Biso 1.000000     C
    C   1.0     0.480876     0.749227     0.437715  Biso 1.000000     C
    C   1.0    -0.055129     0.812526     0.474866  Biso 1.000000     C
    C   1.0     0.434849     0.819808     0.438293  Biso 1.000000     C
    C   1.0     0.009213     0.846014     0.510242  Biso 1.000000     C
    C   1.0     0.496692     0.861957     0.465456  Biso 1.000000     C
    C   1.0     0.111693     0.806577     0.539970  Biso 1.000000     C
    C   1.0     0.606726     0.832147     0.491000  Biso 1.000000     C
    C   1.0     0.149566     0.737002     0.533280  Biso 1.000000     C
    C   1.0     0.654549     0.763104     0.488154  Biso 1.000000     C
    C   1.0    -0.030465     0.920726     0.516251  Biso 1.000000     C
    C   1.0     0.448505     0.934780     0.473368  Biso 1.000000     C
    C   1.0     0.243503     0.476372     0.636340  Biso 1.000000     C
    C   1.0     0.758421     0.515428     0.625392  Biso 1.000000     C
    C   1.0     0.213820     0.462532     0.716203  Biso 1.000000     C
    C   1.0     0.733777     0.509767     0.704070  Biso 1.000000     C
    C   1.0     0.106474     0.436054     0.749504  Biso 1.000000     C
    C   1.0     0.630029     0.482215     0.742406  Biso 1.000000     C
    C   1.0     0.074905     0.427135     0.823278  Biso 1.000000     C
    C   1.0     0.602057     0.480858     0.814833  Biso 1.000000     C
    C   1.0     0.148726     0.446094     0.865196  Biso 1.000000     C
    C   1.0     0.675760     0.508068     0.850476  Biso 1.000000     C
    C   1.0     0.257200     0.471254     0.831584  Biso 1.000000     C
    C   1.0     0.780537     0.534433     0.811947  Biso 1.000000     C
    C   1.0     0.290029     0.478796     0.758218  Biso 1.000000     C
    C   1.0     0.809949     0.534794     0.739615  Biso 1.000000     C
    C   1.0     0.110196     0.448804     0.941101  Biso 1.000000     C
    C   1.0     0.640596     0.512265     0.926051  Biso 1.000000     C
    C   1.0     0.449547     0.040797     0.842378  Biso 1.000000     C
    C   1.0     0.895289    -0.002104     0.895910  Biso 1.000000     C
    C   1.0     0.434512     0.032118     0.770099  Biso 1.000000     C
    C   1.0     0.896312     0.006946     0.817294  Biso 1.000000     C
    C   1.0     0.326194     0.055748     0.740412  Biso 1.000000     C
    C   1.0     0.804728     0.044466     0.776265  Biso 1.000000     C
    C   1.0     0.315448     0.050015     0.671712  Biso 1.000000     C
    C   1.0     0.813895     0.047463     0.703012  Biso 1.000000     C
    C   1.0    -0.086880     0.012011     0.669233  Biso 1.000000     C
    C   1.0     0.411774     0.019351     0.631341  Biso 1.000000     C
    C   1.0     0.007049    -0.022528     0.710277  Biso 1.000000     C
    C   1.0     0.518718    -0.006226     0.662540  Biso 1.000000     C
    C   1.0    -0.000595    -0.024603     0.782709  Biso 1.000000     C
    C   1.0     0.530150     0.000344     0.730728  Biso 1.000000     C
    C   1.0     0.404396     0.012554     0.557834  Biso 1.000000     C
    C   1.0     0.919052     0.004764     0.594613  Biso 1.000000     C
    C   1.0     0.075017     0.091977     0.000000  Biso 1.000000     C
    C   1.0     0.538808     0.174668     0.949899  Biso 1.000000     C
    C   1.0     0.074946     0.170496     0.995780  Biso 1.000000     C
    C   1.0     0.558634     0.246910     0.955669  Biso 1.000000     C
    C   1.0     0.162748     0.211156     0.953199  Biso 1.000000     C
    C   1.0     0.670613     0.271863     0.935776  Biso 1.000000     C
    C   1.0     0.159399     0.283529     0.951388  Biso 1.000000     C
    C   1.0     0.686515     0.339224     0.942442  Biso 1.000000     C
    C   1.0     0.591641     0.382243     0.970762  Biso 1.000000     C
    C   1.0     0.000000     0.317640     0.992276  Biso 1.000000     C
    C   1.0     0.480328     0.356130     0.991771  Biso 1.000000     C
    C   1.0     0.977025     0.277204     0.000000  Biso 1.000000     C
    C   1.0     0.463663     0.289709     0.983737  Biso 1.000000     C
    C   1.0     0.979717     0.205277     0.000000  Biso 1.000000     C
    C   1.0     0.069260     0.392040     0.998251  Biso 1.000000     C
    C   1.0     0.602485     0.453522     0.981420  Biso 1.000000     C
    C   1.0     0.246565     0.370294     0.492657  Biso 1.000000     C
    C   1.0     0.750482     0.364158     0.517326  Biso 1.000000     C
    C   1.0     0.269140     0.291156     0.502874  Biso 1.000000     C
    C   1.0     0.777944     0.284645     0.527082  Biso 1.000000     C
    C   1.0     0.373590     0.253047     0.530515  Biso 1.000000     C
    C   1.0     0.880420     0.248225     0.558481  Biso 1.000000     C
    C   1.0     0.400412     0.180210     0.534030  Biso 1.000000     C
    C   1.0     0.911241     0.174984     0.564609  Biso 1.000000     C
    C   1.0     0.324882     0.144368     0.508559  Biso 1.000000     C
    C   1.0     0.842341     0.136427     0.537630  Biso 1.000000     C
    C   1.0     0.218569     0.182450     0.483205  Biso 1.000000     C
    C   1.0     0.739149     0.173152     0.506858  Biso 1.000000     C
    C   1.0     0.190239     0.255056     0.480883  Biso 1.000000     C
    C   1.0     0.706420     0.246091     0.502387  Biso 1.000000     C
    C   1.0     0.361434     0.069906     0.501814  Biso 1.000000     C
    C   1.0     0.882049     0.060625     0.535342  Biso 1.000000     C
    C   1.0     0.565982     0.464069     0.050230  Biso 1.000000     C
    C   1.0     0.000000     0.406398     0.066078  Biso 1.000000     C
    C   1.0     0.364072     0.058166     0.433410  Biso 1.000000     C
    C   1.0     0.890668     0.044779     0.468257  Biso 1.000000     C
    C   1.0     0.110172     0.515708     0.955202  Biso 1.000000     C
    C   1.0     0.634079     0.579052     0.941961  Biso 1.000000     C
    C   1.0    -0.039281     0.936357     0.583230  Biso 1.000000     C
    C   1.0     0.444677     0.946292     0.542007  Biso 1.000000     C
    O   1.0     0.421196     0.529502     0.407103  Biso 1.000000     O
    O   1.0     0.953687     0.522973     0.407119  Biso 1.000000     O
    O   1.0     0.245557     0.535509     0.363000  Biso 1.000000     O
    O   1.0     0.770719     0.508517     0.388472  Biso 1.000000     O
    O   1.0     0.111005     0.936452     0.135744  Biso 1.000000     O
    O   1.0     0.577179     0.000000     0.073686  Biso 1.000000     O
    O   1.0     0.375175     0.000000     0.079541  Biso 1.000000     O
    O   1.0     0.909315     0.957114     0.133506  Biso 1.000000     O
    O   1.0     0.367585     0.924037     0.015636  Biso 1.000000     O
    O   1.0     0.948453     0.861130     0.039414  Biso 1.000000     O
    O   1.0     0.149316     0.855770     0.010830  Biso 1.000000     O
    O   1.0     0.565301     0.925930    -0.010370  Biso 1.000000     O
    O   1.0     0.057438     0.592449     0.474182  Biso 1.000000     O
    O   1.0     0.589302     0.596735     0.466296  Biso 1.000000     O
    O   1.0     0.238875     0.609433     0.493121  Biso 1.000000     O
    O   1.0     0.765396     0.641341     0.455439  Biso 1.000000     O
    O   1.0     0.165516     0.475391     0.597295  Biso 1.000000     O
    O   1.0     0.677013     0.504442     0.593565  Biso 1.000000     O
    O   1.0     0.351181     0.490772     0.609781  Biso 1.000000     O
    O   1.0     0.861219     0.533715     0.594855  Biso 1.000000     O
    O   1.0     0.353757     0.056472     0.881713  Biso 1.000000     O
    O   1.0     0.800045    -0.000014     0.942142  Biso 1.000000     O
    O   1.0    -0.004342    -0.016029     0.919956  Biso 1.000000     O
    O   1.0     0.553964     0.032227     0.860311  Biso 1.000000     O
    O   1.0     0.175712     0.050689     0.997508  Biso 1.000000     O
    O   1.0     0.629938     0.130723     0.938916  Biso 1.000000     O
    O   1.0     0.430430     0.162230     0.957564  Biso 1.000000     O
    O   1.0     0.975525     0.068719     0.000000  Biso 1.000000     O
    O   1.0     0.329867     0.402723     0.499865  Biso 1.000000     O
    O   1.0     0.830098     0.400099     0.522428  Biso 1.000000     O
    O   1.0     0.143435     0.400671     0.474000  Biso 1.000000     O
    O   1.0     0.644659     0.394438     0.501846  Biso 1.000000     O
   Zn   1.0     0.334842     0.505646     0.507120  Biso 1.000000    Zn
   Zn   1.0     0.884855     0.563588     0.491994  Biso 1.000000    Zn
   Zn   1.0     0.190087     0.939227     0.000000  Biso 1.000000    Zn
   Zn   1.0     0.615121     0.000000     0.959396  Biso 1.000000    Zn
   Zn   1.0     0.360113     0.068663    -0.022556  Biso 1.000000    Zn
   Zn   1.0     0.924527    -0.030939     0.027626  Biso 1.000000    Zn
   Zn   1.0     0.124780     0.502954     0.441693  Biso 1.000000    Zn
   Zn   1.0     0.674835     0.494990     0.491049  Biso 1.000000    Zn
