#======================================================================

# CRYSTAL DATA

#----------------------------------------------------------------------

data_VESTA_phase_1


_pd_phase_name                         MOF
_cell_length_a                         14.02500
_cell_length_b                         14.51700
_cell_length_c                         14.98700
_cell_angle_alpha                      118.88600
_cell_angle_beta                       94.18800
_cell_angle_gamma                      89.98200
_symmetry_space_group_name_H-M         "P 1"
_symmetry_Int_Tables_number            1

loop_
_symmetry_equiv_pos_as_xyz
   "x, y, z"

loop_
   _atom_site_label
   _atom_site_occupancy
   _atom_site_fract_x
   _atom_site_fract_y
   _atom_site_fract_z
   _atom_site_adp_type
   _atom_site_B_iso_or_equiv
   _atom_site_type_symbol
    H   1.0     0.303793     0.649728     0.300914  Biso 1.000000     H
    H   1.0     0.803806     0.649728     0.300914  Biso 1.000000     H
    H   1.0     0.316833     0.578921     0.424383  Biso 1.000000     H
    H   1.0     0.816847     0.578920     0.424382  Biso 1.000000     H
    H   1.0     0.196228     0.350387     0.699067  Biso 1.000000     H
    H   1.0     0.696241     0.350386     0.699067  Biso 1.000000     H
    H   1.0     0.414987     0.420617     0.462671  Biso 1.000000     H
    H   1.0     0.915001     0.420617     0.462671  Biso 1.000000     H
    H   1.0     0.292164     0.257012     0.091948  Biso 1.000000     H
    H   1.0     0.792177     0.257012     0.091948  Biso 1.000000     H
    H   1.0     0.277089     0.320898     0.224695  Biso 1.000000     H
    H   1.0     0.777103     0.320898     0.224696  Biso 1.000000     H
    H   1.0     0.207869     0.743095     0.908036  Biso 1.000000     H
    H   1.0     0.707883     0.743095     0.908036  Biso 1.000000     H
    H   1.0     0.335295     0.957915     0.536872  Biso 1.000000     H
    H   1.0     0.835308     0.957914     0.536872  Biso 1.000000     H
    H   1.0     0.027133     0.903458     0.222695  Biso 1.000000     H
    H   1.0     0.527147     0.903459     0.222695  Biso 1.000000     H
    H   1.0     0.066885     0.846028     0.424452  Biso 1.000000     H
    H   1.0     0.566899     0.846028     0.424452  Biso 1.000000     H
    H   1.0     0.407230     0.229613     0.330339  Biso 1.000000     H
    H   1.0     0.907243     0.229612     0.330339  Biso 1.000000     H
    H   1.0     0.433149     0.154105     0.575567  Biso 1.000000     H
    H   1.0     0.933163     0.154105     0.575567  Biso 1.000000     H
    H   1.0     0.042448     0.833738     0.090040  Biso 1.000000     H
    H   1.0     0.542462     0.833738     0.090040  Biso 1.000000     H
    H   1.0     0.343957     0.899079     0.669359  Biso 1.000000     H
    H   1.0     0.843971     0.899078     0.669359  Biso 1.000000     H
    H   1.0     0.457585     0.166381     0.909971  Biso 1.000000     H
    H   1.0     0.957599     0.166381     0.909971  Biso 1.000000     H
    H   1.0     0.164722     0.042199     0.463112  Biso 1.000000     H
    H   1.0     0.664735     0.042199     0.463113  Biso 1.000000     H
    H   1.0     0.156055     0.101031     0.330623  Biso 1.000000     H
    H   1.0     0.656068     0.101030     0.330623  Biso 1.000000     H
    H   1.0     0.054260     0.652047     0.301115  Biso 1.000000     H
    H   1.0     0.554273     0.652046     0.301115  Biso 1.000000     H
    H   1.0     0.472895     0.096655     0.777315  Biso 1.000000     H
    H   1.0     0.972908     0.096655     0.777314  Biso 1.000000     H
    H   1.0     0.222930     0.679194     0.775286  Biso 1.000000     H
    H   1.0     0.722944     0.679194     0.775286  Biso 1.000000     H
    H   1.0     0.445773     0.348086     0.698900  Biso 1.000000     H
    H   1.0     0.945787     0.348086     0.698900  Biso 1.000000     H
    H   1.0     0.183185     0.421191     0.575596  Biso 1.000000     H
    H   1.0     0.683199     0.421191     0.575596  Biso 1.000000     H
    H   1.0     0.085034     0.579509     0.537339  Biso 1.000000     H
    H   1.0     0.585048     0.579509     0.537338  Biso 1.000000     H
    H   1.0     0.092795     0.770512     0.669675  Biso 1.000000     H
    H   1.0     0.592808     0.770511     0.669675  Biso 1.000000     H
    C   1.0     0.079728     0.640870     0.515510  Biso 1.000000     C
    C   1.0     0.579743     0.640870     0.515510  Biso 1.000000     C
    C   1.0     0.095697     0.938775     0.633966  Biso 1.000000     C
    C   1.0     0.595710     0.938775     0.633966  Biso 1.000000     C
    C   1.0     0.347107     0.695186     0.633727  Biso 1.000000     C
    C   1.0     0.847119     0.695185     0.633727  Biso 1.000000     C
    C   1.0     0.167161     0.266173     0.443434  Biso 1.000000     C
    C   1.0     0.667177     0.266172     0.443434  Biso 1.000000     C
    C   1.0     0.488306     0.739833     0.148870  Biso 1.000000     C
    C   1.0     0.988319     0.739833     0.148870  Biso 1.000000     C
    C   1.0     0.344126     0.190056     0.820578  Biso 1.000000     C
    C   1.0     0.844140     0.190056     0.820578  Biso 1.000000     C
    C   1.0     0.420297     0.359260     0.484504  Biso 1.000000     C
    C   1.0     0.920310     0.359259     0.484504  Biso 1.000000     C
    C   1.0     0.300128     0.333242     0.162897  Biso 1.000000     C
    C   1.0     0.800142     0.333242     0.162897  Biso 1.000000     C
    C   1.0     0.417749     0.177142     0.443266  Biso 1.000000     C
    C   1.0     0.917762     0.177142     0.443266  Biso 1.000000     C
    C   1.0     0.404336     0.061361     0.366047  Biso 1.000000     C
    C   1.0     0.904350     0.061360     0.366047  Biso 1.000000     C
    C   1.0     0.405746     0.370037     0.180472  Biso 1.000000     C
    C   1.0     0.905760     0.370037     0.180472  Biso 1.000000     C
    C   1.0     0.085041     0.746852     0.588550  Biso 1.000000     C
    C   1.0     0.585053     0.746851     0.588550  Biso 1.000000     C
    C   1.0     0.155903     0.810065     0.179435  Biso 1.000000     C
    C   1.0     0.655916     0.810065     0.179435  Biso 1.000000     C
    C   1.0     0.414987     0.253278     0.411465  Biso 1.000000     C
    C   1.0     0.915001     0.253277     0.411465  Biso 1.000000     C
    C   1.0     0.050282     0.829130     0.161445  Biso 1.000000     C
    C   1.0     0.550296     0.829130     0.161444  Biso 1.000000     C
    C   1.0     0.437428     0.318294     0.616660  Biso 1.000000     C
    C   1.0     0.937442     0.318293     0.616660  Biso 1.000000     C
    C   1.0     0.329938     0.874812     0.515145  Biso 1.000000     C
    C   1.0     0.829955     0.874812     0.515145  Biso 1.000000     C
    C   1.0     0.180266     0.336769     0.548281  Biso 1.000000     C
    C   1.0     0.680277     0.336768     0.548281  Biso 1.000000     C
    C   1.0     0.332851     0.733941     0.556546  Biso 1.000000     C
    C   1.0     0.832867     0.733941     0.556546  Biso 1.000000     C
    C   1.0     0.449748     0.170985     0.838565  Biso 1.000000     C
    C   1.0     0.949761     0.170985     0.838565  Biso 1.000000     C
    C   1.0     0.187642     0.298096     0.616847  Biso 1.000000     C
    C   1.0     0.687658     0.298095     0.616847  Biso 1.000000     C
    C   1.0     0.261856     0.590404     0.850329  Biso 1.000000     C
    C   1.0     0.761869     0.590403     0.850329  Biso 1.000000     C
    C   1.0     0.164366     0.158335     0.411719  Biso 1.000000     C
    C   1.0     0.664377     0.158335     0.411719  Biso 1.000000     C
    C   1.0     0.319755     0.663344     0.451699  Biso 1.000000     C
    C   1.0     0.819766     0.663344     0.451699  Biso 1.000000     C
    C   1.0     0.170075     0.125302     0.484838  Biso 1.000000     C
    C   1.0     0.670091     0.125301     0.484838  Biso 1.000000     C
    C   1.0     0.199894     0.666861     0.837092  Biso 1.000000     C
    C   1.0     0.699907     0.666861     0.837092  Biso 1.000000     C
    C   1.0     0.335652     0.841778     0.588262  Biso 1.000000     C
    C   1.0     0.835662     0.841777     0.588262  Biso 1.000000     C
    C   1.0     0.430310     0.211211     0.548156  Biso 1.000000     C
    C   1.0     0.930324     0.211211     0.548156  Biso 1.000000     C
    C   1.0     0.062602     0.681840     0.383355  Biso 1.000000     C
    C   1.0     0.562617     0.681840     0.383355  Biso 1.000000     C
    C   1.0     0.094272     0.630087     0.819529  Biso 1.000000     C
    C   1.0     0.594286     0.630087     0.819530  Biso 1.000000     C
    C   1.0     0.069723     0.788922     0.451860  Biso 1.000000     C
    C   1.0     0.569735     0.788921     0.451860  Biso 1.000000     C
    C   1.0     0.011724     0.260282     0.851134  Biso 1.000000     C
    C   1.0     0.511738     0.260282     0.851134  Biso 1.000000     C
    C   1.0     0.312374     0.702020     0.383134  Biso 1.000000     C
    C   1.0     0.812391     0.702019     0.383134  Biso 1.000000     C
    C   1.0     0.238163     0.409699     0.149662  Biso 1.000000     C
    C   1.0     0.738176     0.409699     0.149662  Biso 1.000000     C
    C   1.0     0.082282     0.822990     0.556750  Biso 1.000000     C
    C   1.0     0.582298     0.822989     0.556750  Biso 1.000000     C
    C   1.0     0.152915     0.304940     0.366259  Biso 1.000000     C
    C   1.0     0.652927     0.304939     0.366259  Biso 1.000000     C
    N   1.0     0.337445     0.543394     0.796893  Biso 1.000000     N
    N   1.0     0.837459     0.543393     0.796893  Biso 1.000000     N
    N   1.0     0.181621     0.514864     0.097378  Biso 1.000000     N
    N   1.0     0.681634     0.514864     0.097378  Biso 1.000000     N
    N   1.0     0.499120     0.361941     0.917183  Biso 1.000000     N
    N   1.0     0.999133     0.361941     0.917183  Biso 1.000000     N
    N   1.0     0.128509     0.522028     0.168499  Biso 1.000000     N
    N   1.0     0.628522     0.522027     0.168499  Biso 1.000000     N
    N   1.0     0.249131     0.555038     0.916662  Biso 1.000000     N
    N   1.0     0.749144     0.555037     0.916662  Biso 1.000000     N
    N   1.0     0.250891     0.445068     0.083332  Biso 1.000000     N
    N   1.0     0.750904     0.445068     0.083332  Biso 1.000000     N
    N   1.0     0.431718     0.582751     0.097352  Biso 1.000000     N
    N   1.0     0.931732     0.582751     0.097352  Biso 1.000000     N
    N   1.0     0.180312     0.193956     0.586441  Biso 1.000000     N
    N   1.0     0.680324     0.193956     0.586441  Biso 1.000000     N
    N   1.0     0.319711     0.806160     0.413541  Biso 1.000000     N
    N   1.0     0.819723     0.806160     0.413541  Biso 1.000000     N
    N   1.0     0.087130     0.253551     0.797309  Biso 1.000000     N
    N   1.0     0.587144     0.253551     0.797309  Biso 1.000000     N
    N   1.0     0.069811     0.608116     0.413890  Biso 1.000000     N
    N   1.0     0.569824     0.608116     0.413890  Biso 1.000000     N
    N   1.0     0.318406     0.485247     0.902621  Biso 1.000000     N
    N   1.0     0.818419     0.485247     0.902621  Biso 1.000000     N
    N   1.0     0.000913     0.638174     0.082824  Biso 1.000000     N
    N   1.0     0.500926     0.638174     0.082824  Biso 1.000000     N
    N   1.0     0.371518     0.478086     0.831500  Biso 1.000000     N
    N   1.0     0.871532     0.478086     0.831500  Biso 1.000000     N
    N   1.0     0.412893     0.746568     0.202686  Biso 1.000000     N
    N   1.0     0.912906     0.746568     0.202686  Biso 1.000000     N
    N   1.0     0.068306     0.417366     0.902648  Biso 1.000000     N
    N   1.0     0.568320     0.417365     0.902648  Biso 1.000000     N
    N   1.0     0.378780     0.646856     0.168509  Biso 1.000000     N
    N   1.0     0.878794     0.646856     0.168509  Biso 1.000000     N
    N   1.0     0.430219     0.392018     0.586125  Biso 1.000000     N
    N   1.0     0.930233     0.392018     0.586125  Biso 1.000000     N
    N   1.0     0.162576     0.456714     0.203101  Biso 1.000000     N
    N   1.0     0.662589     0.456713     0.203101  Biso 1.000000     N
    N   1.0     0.121238     0.353264     0.831484  Biso 1.000000     N
    N   1.0     0.621252     0.353264     0.831484  Biso 1.000000     N
    O   1.0     0.116616     0.998070     0.594157  Biso 1.000000     O
    O   1.0     0.616630     0.998070     0.594157  Biso 1.000000     O
    O   1.0     0.193246     0.730643     0.111332  Biso 1.000000     O
    O   1.0     0.693260     0.730643     0.111332  Biso 1.000000     O
    O   1.0     0.199687     0.877816     0.264476  Biso 1.000000     O
    O   1.0     0.699701     0.877816     0.264476  Biso 1.000000     O
    O   1.0     0.412176     0.030396     0.274102  Biso 1.000000     O
    O   1.0     0.912190     0.030396     0.274103  Biso 1.000000     O
    O   1.0     0.050380     0.612385     0.734342  Biso 1.000000     O
    O   1.0     0.550394     0.612386     0.734342  Biso 1.000000     O
    O   1.0     0.158589     0.243836     0.273984  Biso 1.000000     O
    O   1.0     0.658604     0.243835     0.273985  Biso 1.000000     O
    O   1.0     0.383407     0.002066     0.405852  Biso 1.000000     O
    O   1.0     0.883420     0.002065     0.405852  Biso 1.000000     O
    O   1.0     0.300336     0.122313     0.735539  Biso 1.000000     O
    O   1.0     0.800350     0.122313     0.735539  Biso 1.000000     O
    O   1.0     0.057085     0.619225     0.888044  Biso 1.000000     O
    O   1.0     0.557099     0.619225     0.888044  Biso 1.000000     O
    O   1.0     0.306788     0.269479     0.888687  Biso 1.000000     O
    O   1.0     0.806802     0.269479     0.888688  Biso 1.000000     O
    O   1.0     0.442937     0.380878     0.111948  Biso 1.000000     O
    O   1.0     0.942951     0.380878     0.111948  Biso 1.000000     O
    O   1.0     0.341439     0.756298     0.726002  Biso 1.000000     O
    O   1.0     0.841453     0.756298     0.726002  Biso 1.000000     O
    O   1.0     0.449627     0.387783     0.265678  Biso 1.000000     O
    O   1.0     0.949640     0.387783     0.265678  Biso 1.000000     O
    O   1.0     0.366370     0.595669     0.593515  Biso 1.000000     O
    O   1.0     0.866384     0.595668     0.593515  Biso 1.000000     O
    O   1.0     0.133649     0.404457     0.406476  Biso 1.000000     O
    O   1.0     0.633662     0.404456     0.406476  Biso 1.000000     O
    O   1.0     0.087864     0.969742     0.725912  Biso 1.000000     O
    O   1.0     0.587878     0.969741     0.725912  Biso 1.000000     O
   Zn   1.0     0.333387     0.859135     0.307935  Biso 1.000000    Zn
   Zn   1.0     0.833401     0.859134     0.307935  Biso 1.000000    Zn
   Zn   1.0     0.166641     0.141011     0.692058  Biso 1.000000    Zn
   Zn   1.0     0.666655     0.141010     0.692058  Biso 1.000000    Zn
   Zn   1.0     0.375008     0.419001     0.000000  Biso 1.000000    Zn
   Zn   1.0     0.875021     0.419001     0.000000  Biso 1.000000    Zn
   Zn   1.0     0.125023     0.581113     0.999740  Biso 1.000000    Zn
   Zn   1.0     0.625037     0.581113     0.999740  Biso 1.000000    Zn
   Zn   1.0     0.416688     0.550420     0.691347  Biso 1.000000    Zn
   Zn   1.0     0.916701     0.550420     0.691347  Biso 1.000000    Zn
   Zn   1.0     0.083331     0.449734     0.308661  Biso 1.000000    Zn
   Zn   1.0     0.583345     0.449734     0.308661  Biso 1.000000    Zn
