#======================================================================

# CRYSTAL DATA

#----------------------------------------------------------------------

data_VESTA_phase_1


_pd_phase_name                         MOF
_cell_length_a                         23.84100
_cell_length_b                         12.11500
_cell_length_c                         12.11700
_cell_angle_alpha                      76.03000
_cell_angle_beta                       60.54900
_cell_angle_gamma                      60.56700
_symmetry_space_group_name_H-M         "P 1"
_symmetry_Int_Tables_number            1

loop_
_symmetry_equiv_pos_as_xyz
   "x, y, z"

loop_
   _atom_site_label
   _atom_site_occupancy
   _atom_site_fract_x
   _atom_site_fract_y
   _atom_site_fract_z
   _atom_site_adp_type
   _atom_site_B_iso_or_equiv
   _atom_site_type_symbol
    H   1.0     0.070298     0.499794     0.498919  Biso 1.000000     H
    H   1.0     0.570286     0.499874     0.498851  Biso 1.000000     H
    H   1.0     0.176762     0.939797     0.195597  Biso 1.000000     H
    H   1.0     0.676767     0.939803     0.195585  Biso 1.000000     H
    H   1.0     0.180060     0.500239     0.499587  Biso 1.000000     H
    H   1.0     0.680065     0.500204     0.499600  Biso 1.000000     H
    H   1.0     0.444997     0.000172     0.999744  Biso 1.000000     H
    H   1.0     0.944979     0.000171     0.999762  Biso 1.000000     H
    H   1.0     0.219047     0.936513     0.436837  Biso 1.000000     H
    H   1.0     0.719065     0.936388     0.436997  Biso 1.000000     H
    H   1.0     0.353346     0.939574     0.804209  Biso 1.000000     H
    H   1.0     0.853344     0.939610     0.804174  Biso 1.000000     H
    H   1.0     0.448191     0.304360     0.560282  Biso 1.000000     H
    H   1.0     0.948161     0.304361     0.560290  Biso 1.000000     H
    H   1.0     0.380223     0.695772     0.440536  Biso 1.000000     H
    H   1.0     0.880240     0.695778     0.440553  Biso 1.000000     H
    H   1.0     0.054720     0.001093     0.000131  Biso 1.000000     H
    H   1.0     0.554730     0.001006     0.000135  Biso 1.000000     H
    H   1.0     0.225614     0.059320     0.195702  Biso 1.000000     H
    H   1.0     0.725596     0.059324     0.195685  Biso 1.000000     H
    H   1.0     0.312475     0.936642     0.563253  Biso 1.000000     H
    H   1.0     0.812442     0.936714     0.563400  Biso 1.000000     H
    H   1.0     0.062403     0.063496     0.436911  Biso 1.000000     H
    H   1.0     0.562505     0.063325     0.436707  Biso 1.000000     H
    H   1.0     0.399363     0.304287     0.440734  Biso 1.000000     H
    H   1.0     0.899370     0.304289     0.440734  Biso 1.000000     H
    H   1.0     0.405887     0.063019     0.563640  Biso 1.000000     H
    H   1.0     0.905913     0.062977     0.563634  Biso 1.000000     H
    H   1.0     0.244769     0.059610     0.804178  Biso 1.000000     H
    H   1.0     0.744775     0.059533     0.804144  Biso 1.000000     H
    H   1.0     0.271631     0.695763     0.560501  Biso 1.000000     H
    H   1.0     0.771638     0.695794     0.560406  Biso 1.000000     H
    C   1.0     0.054635     0.951332     0.234093  Biso 1.000000     C
    C   1.0     0.554623     0.951387     0.234115  Biso 1.000000     C
    C   1.0     0.219175    -0.000293    -0.000090  Biso 1.000000     C
    C   1.0     0.719182    -0.000326    -0.000125  Biso 1.000000     C
    C   1.0     0.296694     0.265952     0.451104  Biso 1.000000     C
    C   1.0     0.796706     0.265907     0.451145  Biso 1.000000     C
    C   1.0     0.289910     0.389093     0.472584  Biso 1.000000     C
    C   1.0     0.789918     0.389076     0.472576  Biso 1.000000     C
    C   1.0     0.147181     0.049388     0.765893  Biso 1.000000     C
    C   1.0     0.647181     0.049317     0.765888  Biso 1.000000     C
    C   1.0     0.335107     0.027312     0.110911  Biso 1.000000     C
    C   1.0     0.835083     0.027311     0.110921  Biso 1.000000     C
    C   1.0     0.455494     0.390563     0.531587  Biso 1.000000     C
    C   1.0     0.955478     0.390550     0.531602  Biso 1.000000     C
    C   1.0     0.343916     0.500032     0.500590  Biso 1.000000     C
    C   1.0     0.843923     0.500044     0.500545  Biso 1.000000     C
    C   1.0     0.477808     0.734106     0.450654  Biso 1.000000     C
    C   1.0     0.977816     0.734064     0.450733  Biso 1.000000     C
    C   1.0     0.346362     0.968118     0.890437  Biso 1.000000     C
    C   1.0     0.846364     0.968127     0.890411  Biso 1.000000     C
    C   1.0     0.015551     0.388951     0.527334  Biso 1.000000     C
    C   1.0     0.515556     0.388988     0.527295  Biso 1.000000     C
    C   1.0     0.070350     0.265859     0.548654  Biso 1.000000     C
    C   1.0     0.570351     0.265899     0.548633  Biso 1.000000     C
    C   1.0     0.278624     0.609538     0.531913  Biso 1.000000     C
    C   1.0     0.778634     0.609557     0.531836  Biso 1.000000     C
    C   1.0     0.281057    -0.000499    -0.000048  Biso 1.000000     C
    C   1.0     0.781051    -0.000483    -0.000085  Biso 1.000000     C
    C   1.0     0.404355     0.972089     0.888894  Biso 1.000000     C
    C   1.0     0.904346     0.972117     0.888890  Biso 1.000000     C
    C   1.0     0.220663     0.611089     0.527811  Biso 1.000000     C
    C   1.0     0.720670     0.611096     0.527756  Biso 1.000000     C
    C   1.0     0.169473     0.968473     0.109402  Biso 1.000000     C
    C   1.0     0.669477     0.968471     0.109391  Biso 1.000000     C
    C   1.0     0.024525     0.499886     0.499405  Biso 1.000000     C
    C   1.0     0.524520     0.499935     0.499342  Biso 1.000000     C
    C   1.0     0.225620     0.500131     0.499970  Biso 1.000000     C
    C   1.0     0.725627     0.500116     0.499956  Biso 1.000000     C
    C   1.0     0.469793     0.950883     0.765775  Biso 1.000000     C
    C   1.0     0.969804     0.950881     0.765792  Biso 1.000000     C
    C   1.0     0.473873     0.610964     0.472053  Biso 1.000000     C
    C   1.0     0.973876     0.610930     0.472115  Biso 1.000000     C
    C   1.0     0.416427     0.609533     0.468825  Biso 1.000000     C
    C   1.0     0.916433     0.609525     0.468849  Biso 1.000000     C
    C   1.0     0.349017     0.390536     0.469142  Biso 1.000000     C
    C   1.0     0.849023     0.390536     0.469120  Biso 1.000000     C
    C   1.0     0.109425     0.972709     0.110985  Biso 1.000000     C
    C   1.0     0.609436     0.972670     0.110987  Biso 1.000000     C
    C   1.0     0.155222     0.734184     0.549032  Biso 1.000000     C
    C   1.0     0.655215     0.734185     0.548993  Biso 1.000000     C
    C   1.0     0.275972     0.030883     0.109453  Biso 1.000000     C
    C   1.0     0.775956     0.030876     0.109440  Biso 1.000000     C
    C   1.0     0.151124     0.028010     0.889006  Biso 1.000000     C
    C   1.0     0.651133     0.027908     0.888996  Biso 1.000000     C
    C   1.0     0.328316     0.048786     0.234056  Biso 1.000000     C
    C   1.0     0.828308     0.048727     0.234076  Biso 1.000000     C
    C   1.0     0.100478     0.000657     0.000047  Biso 1.000000     C
    C   1.0     0.600482     0.000592     0.000057  Biso 1.000000     C
    C   1.0     0.208561     0.031294     0.890427  Biso 1.000000     C
    C   1.0     0.708562     0.031237     0.890402  Biso 1.000000     C
    C   1.0     0.405793     0.500057     0.500425  Biso 1.000000     C
    C   1.0     0.905791     0.500060     0.500422  Biso 1.000000     C
    C   1.0     0.399413    -0.000120    -0.000139  Biso 1.000000     C
    C   1.0     0.899394    -0.000123    -0.000118  Biso 1.000000     C
    O   1.0     0.112940     0.000000     0.754814  Biso 1.000000     O
    O   1.0     0.612890     0.000000     0.754813  Biso 1.000000     O
    O   1.0     0.312482     0.000000     0.498362  Biso 1.000000     O
    O   1.0     0.812487     0.000000     0.498347  Biso 1.000000     O
    O   1.0     0.115598     0.745345     0.501711  Biso 1.000000     O
    O   1.0     0.615540     0.745309     0.501807  Biso 1.000000     O
    O   1.0     0.012130     0.745154     0.497524  Biso 1.000000     O
    O   1.0     0.512073     0.745211     0.497521  Biso 1.000000     O
    O   1.0     0.239034     0.254785     0.497874  Biso 1.000000     O
    O   1.0     0.739046     0.254730     0.497968  Biso 1.000000     O
    O   1.0     0.491345    -0.001477     0.245392  Biso 1.000000     O
    O   1.0     0.991352    -0.001626     0.245362  Biso 1.000000     O
    O   1.0     0.264743     0.109051     0.319254  Biso 1.000000     O
    O   1.0     0.764739     0.109047     0.319262  Biso 1.000000     O
    O   1.0     0.180586     0.109688     0.680616  Biso 1.000000     O
    O   1.0     0.680649     0.109509     0.680591  Biso 1.000000     O
    O   1.0     0.049325     0.180740     0.609210  Biso 1.000000     O
    O   1.0     0.549320     0.180777     0.609137  Biso 1.000000     O
    O   1.0     0.145893     0.819384     0.609640  Biso 1.000000     O
    O   1.0     0.645923     0.819431     0.609486  Biso 1.000000     O
    O   1.0     0.075662     0.890872     0.319196  Biso 1.000000     O
    O   1.0     0.575646     0.890869     0.319211  Biso 1.000000     O
    O   1.0     0.186658     0.000000     0.501793  Biso 1.000000     O
    O   1.0     0.686609     0.000000     0.501734  Biso 1.000000     O
    O   1.0     0.385965     0.000000     0.245240  Biso 1.000000     O
    O   1.0     0.885956     0.000000     0.245278  Biso 1.000000     O
    O   1.0     0.360260     0.180749     0.390854  Biso 1.000000     O
    O   1.0     0.860271     0.180695     0.390893  Biso 1.000000     O
    O   1.0     0.009487    -0.001894     0.754696  Biso 1.000000     O
    O   1.0     0.509466    -0.001876     0.754639  Biso 1.000000     O
    O   1.0     0.438356    -0.001693     0.498386  Biso 1.000000     O
    O   1.0     0.938387    -0.001715     0.498361  Biso 1.000000     O
    O   1.0     0.479074     0.890403     0.680535  Biso 1.000000     O
    O   1.0     0.979096     0.890427     0.680519  Biso 1.000000     O
    O   1.0     0.062568    -0.001707     0.501634  Biso 1.000000     O
    O   1.0     0.562506    -0.001661     0.501648  Biso 1.000000     O
    O   1.0     0.444359     0.819375     0.390454  Biso 1.000000     O
    O   1.0     0.944355     0.819335     0.390559  Biso 1.000000     O
    O   1.0     0.133631     0.254599     0.501480  Biso 1.000000     O
    O   1.0     0.633623     0.254654     0.501584  Biso 1.000000     O
   Al   1.0     0.095854     0.000104     0.616449  Biso 1.000000    Al
   Al   1.0     0.595826     0.000154     0.616403  Biso 1.000000    Al
   Al   1.0     0.220920     0.116311     0.499891  Biso 1.000000    Al
   Al   1.0     0.720921     0.116290     0.499898  Biso 1.000000    Al
   Al   1.0     0.404057     0.000119     0.383716  Biso 1.000000    Al
   Al   1.0     0.904062     0.000048     0.383732  Biso 1.000000    Al
   Al   1.0     0.029197     0.883579     0.499813  Biso 1.000000    Al
   Al   1.0     0.529156     0.883592     0.499837  Biso 1.000000    Al
