#======================================================================

# CRYSTAL DATA

#----------------------------------------------------------------------

data_VESTA_phase_1


_pd_phase_name                         MOF
_cell_length_a                         14.78600
_cell_length_b                         14.78600
_cell_length_c                         14.78600
_cell_angle_alpha                      109.42100
_cell_angle_beta                       109.37200
_cell_angle_gamma                      109.37100
_symmetry_space_group_name_H-M         "P 1"
_symmetry_Int_Tables_number            1

loop_
_symmetry_equiv_pos_as_xyz
   "x, y, z"

loop_
   _atom_site_label
   _atom_site_occupancy
   _atom_site_fract_x
   _atom_site_fract_y
   _atom_site_fract_z
   _atom_site_adp_type
   _atom_site_B_iso_or_equiv
   _atom_site_type_symbol
    H   1.0     0.418583     0.655704     0.533628  Biso 1.000000     H
    H   1.0     0.313537     0.790309     0.239702  Biso 1.000000     H
    H   1.0     0.122737     0.886730     0.466724  Biso 1.000000     H
    H   1.0     0.549616     0.072662     0.759625  Biso 1.000000     H
    H   1.0     0.877380     0.343472     0.762325  Biso 1.000000     H
    H   1.0     0.449953     0.209767     0.523777  Biso 1.000000     H
    H   1.0     0.582453     0.116128     0.237809  Biso 1.000000     H
    H   1.0     0.685989     0.925431     0.476041  Biso 1.000000     H
    H   1.0     0.762240     0.877376     0.343323  Biso 1.000000     H
    H   1.0     0.523828     0.449876     0.209739  Biso 1.000000     H
    H   1.0     0.237890     0.582366     0.116211  Biso 1.000000     H
    H   1.0     0.475995     0.685904     0.925337  Biso 1.000000     H
    H   1.0     0.533800     0.418661     0.655884  Biso 1.000000     H
    H   1.0     0.239668     0.313603     0.790349  Biso 1.000000     H
    H   1.0     0.466574     0.122723     0.886651  Biso 1.000000     H
    H   1.0     0.759672     0.549678     0.072776  Biso 1.000000     H
    H   1.0     0.886730     0.466617     0.122700  Biso 1.000000     H
    H   1.0     0.072703     0.759675     0.549760  Biso 1.000000     H
    H   1.0     0.655804     0.533735     0.418675  Biso 1.000000     H
    H   1.0     0.790409     0.239641     0.313514  Biso 1.000000     H
    H   1.0     0.116132     0.237782     0.582354  Biso 1.000000     H
    H   1.0     0.925418     0.476147     0.686017  Biso 1.000000     H
    H   1.0     0.343390     0.762331     0.877403  Biso 1.000000     H
    H   1.0     0.209686     0.523660     0.449810  Biso 1.000000     H
    H   1.0     0.886729     0.122700     0.466621  Biso 1.000000     H
    H   1.0     0.072699     0.549755     0.759689  Biso 1.000000     H
    H   1.0     0.655797     0.418674     0.533733  Biso 1.000000     H
    H   1.0     0.790409     0.313503     0.239647  Biso 1.000000     H
    H   1.0     0.116133     0.582347     0.237784  Biso 1.000000     H
    H   1.0     0.925422     0.686003     0.476150  Biso 1.000000     H
    H   1.0     0.343398     0.877397     0.762335  Biso 1.000000     H
    H   1.0     0.209686     0.449802     0.523671  Biso 1.000000     H
    H   1.0     0.418583     0.533631     0.655725  Biso 1.000000     H
    H   1.0     0.313537     0.239700     0.790321  Biso 1.000000     H
    H   1.0     0.122730     0.466724     0.886736  Biso 1.000000     H
    H   1.0     0.549623     0.759615     0.072665  Biso 1.000000     H
    H   1.0     0.877383     0.762316     0.343474  Biso 1.000000     H
    H   1.0     0.449958     0.523769     0.209768  Biso 1.000000     H
    H   1.0     0.582449     0.237799     0.116123  Biso 1.000000     H
    H   1.0     0.685987     0.476035     0.925449  Biso 1.000000     H
    H   1.0     0.762238     0.343308     0.877385  Biso 1.000000     H
    H   1.0     0.523823     0.209736     0.449884  Biso 1.000000     H
    H   1.0     0.237890     0.116219     0.582385  Biso 1.000000     H
    H   1.0     0.476000     0.925319     0.685913  Biso 1.000000     H
    H   1.0     0.533803     0.655870     0.418661  Biso 1.000000     H
    H   1.0     0.239669     0.790339     0.313607  Biso 1.000000     H
    H   1.0     0.466581     0.886642     0.122726  Biso 1.000000     H
    H   1.0     0.759665     0.072773     0.549685  Biso 1.000000     H
    H   1.0     0.373677     0.902249     0.373773  Biso 1.000000     H
    H   1.0     0.527737    -0.000748     0.625370  Biso 1.000000     H
    H   1.0     0.472169     0.097515     0.472068  Biso 1.000000     H
    H   1.0     0.625473    -0.000539     0.527845  Biso 1.000000     H
    H   1.0     0.472173     0.472057     0.097515  Biso 1.000000     H
    H   1.0     0.527745     0.625360    -0.000743  Biso 1.000000     H
    H   1.0     0.373675     0.373769     0.902262  Biso 1.000000     H
    H   1.0     0.625479     0.527835    -0.000540  Biso 1.000000     H
    H   1.0    -0.000638     0.625457     0.527875  Biso 1.000000     H
    H   1.0     0.902307     0.373673     0.373682  Biso 1.000000     H
    H   1.0    -0.000644     0.527867     0.625468  Biso 1.000000     H
    H   1.0     0.097478     0.472025     0.472033  Biso 1.000000     H
    C   1.0     0.417220     0.683394     0.474108  Biso 1.000000     C
    C   1.0     0.209646     0.944243     0.526190  Biso 1.000000     C
    C   1.0     0.790352     0.315817     0.733467  Biso 1.000000     C
    C   1.0     0.583411     0.057675     0.266528  Biso 1.000000     C
    C   1.0     0.733428     0.790348     0.315747  Biso 1.000000     C
    C   1.0     0.266568     0.583366     0.057716  Biso 1.000000     C
    C   1.0     0.474190     0.417249     0.683482  Biso 1.000000     C
    C   1.0     0.526118     0.209632     0.944209  Biso 1.000000     C
    C   1.0     0.944252     0.526113     0.209631  Biso 1.000000     C
    C   1.0     0.683474     0.474176     0.417280  Biso 1.000000     C
    C   1.0     0.057674     0.266518     0.583342  Biso 1.000000     C
    C   1.0     0.315755     0.733459     0.790356  Biso 1.000000     C
    C   1.0     0.944249     0.209629     0.526122  Biso 1.000000     C
    C   1.0     0.683473     0.417280     0.474179  Biso 1.000000     C
    C   1.0     0.057676     0.583334     0.266520  Biso 1.000000     C
    C   1.0     0.315758     0.790349     0.733464  Biso 1.000000     C
    C   1.0     0.417216     0.474106     0.683409  Biso 1.000000     C
    C   1.0     0.209640     0.526188     0.944253  Biso 1.000000     C
    C   1.0     0.790355     0.733458     0.315820  Biso 1.000000     C
    C   1.0     0.583411     0.266520     0.057671  Biso 1.000000     C
    C   1.0     0.733426     0.315740     0.790358  Biso 1.000000     C
    C   1.0     0.266565     0.057721     0.583381  Biso 1.000000     C
    C   1.0     0.474193     0.683468     0.417250  Biso 1.000000     C
    C   1.0     0.526123     0.944198     0.209636  Biso 1.000000     C
    C   1.0     0.370317     0.754699     0.370342  Biso 1.000000     C
    C   1.0     0.321450     0.811849     0.321509  Biso 1.000000     C
    C   1.0     0.383997    -0.000173     0.629527  Biso 1.000000     C
    C   1.0     0.489589    -0.000797     0.677921  Biso 1.000000     C
    C   1.0     0.615747     0.244700     0.615716  Biso 1.000000     C
    C   1.0     0.510156     0.187978     0.510091  Biso 1.000000     C
    C   1.0     0.629554    -0.000110     0.384031  Biso 1.000000     C
    C   1.0     0.677984    -0.000667     0.489656  Biso 1.000000     C
    C   1.0     0.615751     0.615706     0.244700  Biso 1.000000     C
    C   1.0     0.510161     0.510082     0.187979  Biso 1.000000     C
    C   1.0     0.384003     0.629518    -0.000172  Biso 1.000000     C
    C   1.0     0.489595     0.677911    -0.000793  Biso 1.000000     C
    C   1.0     0.370313     0.370337     0.754709  Biso 1.000000     C
    C   1.0     0.321449     0.321506     0.811861  Biso 1.000000     C
    C   1.0     0.629561     0.384024    -0.000110  Biso 1.000000     C
    C   1.0     0.677992     0.489648    -0.000666  Biso 1.000000     C
    C   1.0    -0.000139     0.629513     0.384073  Biso 1.000000     C
    C   1.0    -0.000726     0.677976     0.489722  Biso 1.000000     C
    C   1.0     0.754794     0.370342     0.370348  Biso 1.000000     C
    C   1.0     0.811933     0.321441     0.321450  Biso 1.000000     C
    C   1.0    -0.000143     0.384068     0.629527  Biso 1.000000     C
    C   1.0    -0.000730     0.489717     0.677990  Biso 1.000000     C
    C   1.0     0.244631     0.615663     0.615671  Biso 1.000000     C
    C   1.0     0.187914     0.510015     0.510024  Biso 1.000000     C
    N   1.0     0.351329     0.728088     0.444030  Biso 1.000000     N
    N   1.0     0.283959     0.907826     0.555772  Biso 1.000000     N
    N   1.0     0.715878     0.271186     0.623169  Biso 1.000000     N
    N   1.0     0.649006     0.092677     0.376643  Biso 1.000000     N
    N   1.0     0.623155     0.715829     0.271075  Biso 1.000000     N
    N   1.0     0.376659     0.648898     0.092653  Biso 1.000000     N
    N   1.0     0.444113     0.351425     0.728219  Biso 1.000000     N
    N   1.0     0.555710     0.283989     0.907864  Biso 1.000000     N
    N   1.0     0.907887     0.555717     0.284020  Biso 1.000000     N
    N   1.0     0.728228     0.444082     0.351423  Biso 1.000000     N
    N   1.0     0.092632     0.376658     0.648917  Biso 1.000000     N
    N   1.0     0.271065     0.623135     0.715809  Biso 1.000000     N
    N   1.0     0.907883     0.284016     0.555730  Biso 1.000000     N
    N   1.0     0.728225     0.351419     0.444087  Biso 1.000000     N
    N   1.0     0.092635     0.648903     0.376662  Biso 1.000000     N
    N   1.0     0.271070     0.715800     0.623140  Biso 1.000000     N
    N   1.0     0.351328     0.444030     0.728104  Biso 1.000000     N
    N   1.0     0.283955     0.555771     0.907839  Biso 1.000000     N
    N   1.0     0.715882     0.623159     0.271185  Biso 1.000000     N
    N   1.0     0.649010     0.376634     0.092676  Biso 1.000000     N
    N   1.0     0.623152     0.271068     0.715838  Biso 1.000000     N
    N   1.0     0.376655     0.092654     0.648915  Biso 1.000000     N
    N   1.0     0.444115     0.728206     0.351427  Biso 1.000000     N
    N   1.0     0.555709     0.907850     0.283994  Biso 1.000000     N
   Zn   1.0     0.249542     0.750260     0.499867  Biso 1.000000    Zn
   Zn   1.0     0.750394     0.249656     0.499875  Biso 1.000000    Zn
   Zn   1.0     0.499874     0.750321     0.249598  Biso 1.000000    Zn
   Zn   1.0     0.499874     0.249595     0.750334  Biso 1.000000    Zn
   Zn   1.0     0.750397     0.499865     0.249656  Biso 1.000000    Zn
   Zn   1.0     0.249537     0.499865     0.750274  Biso 1.000000    Zn
