#======================================================================

# CRYSTAL DATA

#----------------------------------------------------------------------

data_VESTA_phase_1


_pd_phase_name                         MOF
_cell_length_a                         14.78400
_cell_length_b                         14.78400
_cell_length_c                         14.78400
_cell_angle_alpha                      109.45600
_cell_angle_beta                       109.44300
_cell_angle_gamma                      109.44200
_symmetry_space_group_name_H-M         "P 1"
_symmetry_Int_Tables_number            1

loop_
_symmetry_equiv_pos_as_xyz
   "x, y, z"

loop_
   _atom_site_label
   _atom_site_occupancy
   _atom_site_fract_x
   _atom_site_fract_y
   _atom_site_fract_z
   _atom_site_adp_type
   _atom_site_B_iso_or_equiv
   _atom_site_type_symbol
    H   1.0     0.421261     0.658258     0.536310  Biso 1.000000     H
    H   1.0     0.312009     0.787173     0.238177  Biso 1.000000     H
    H   1.0     0.122146     0.885354     0.463822  Biso 1.000000     H
    H   1.0     0.548735     0.073621     0.761720  Biso 1.000000     H
    H   1.0     0.877892     0.341614     0.762856  Biso 1.000000     H
    H   1.0     0.451159     0.212947     0.525026  Biso 1.000000     H
    H   1.0     0.578887     0.115218     0.237094  Biso 1.000000     H
    H   1.0     0.687957     0.926072     0.475045  Biso 1.000000     H
    H   1.0     0.762823     0.877911     0.341571  Biso 1.000000     H
    H   1.0     0.525002     0.451165     0.212932  Biso 1.000000     H
    H   1.0     0.237094     0.578906     0.115233  Biso 1.000000     H
    H   1.0     0.475041     0.687978     0.926055  Biso 1.000000     H
    H   1.0     0.536338     0.421282     0.658283  Biso 1.000000     H
    H   1.0     0.238152     0.312027     0.787160  Biso 1.000000     H
    H   1.0     0.463800     0.122154     0.885339  Biso 1.000000     H
    H   1.0     0.761675     0.548757     0.073625  Biso 1.000000     H
    H   1.0     0.885330     0.463821     0.122137  Biso 1.000000     H
    H   1.0     0.073614     0.761715     0.548778  Biso 1.000000     H
    H   1.0     0.658247     0.536344     0.421296  Biso 1.000000     H
    H   1.0     0.787148     0.238153     0.311997  Biso 1.000000     H
    H   1.0     0.115230     0.237093     0.578896  Biso 1.000000     H
    H   1.0     0.926029     0.475078     0.687987  Biso 1.000000     H
    H   1.0     0.341576     0.762872     0.877924  Biso 1.000000     H
    H   1.0     0.212923     0.525001     0.451148  Biso 1.000000     H
    H   1.0     0.885327     0.122141     0.463798  Biso 1.000000     H
    H   1.0     0.073613     0.548775     0.761715  Biso 1.000000     H
    H   1.0     0.658242     0.421294     0.536338  Biso 1.000000     H
    H   1.0     0.787149     0.312001     0.238153  Biso 1.000000     H
    H   1.0     0.115233     0.578925     0.237088  Biso 1.000000     H
    H   1.0     0.926029     0.687976     0.475081  Biso 1.000000     H
    H   1.0     0.341576     0.877926     0.762875  Biso 1.000000     H
    H   1.0     0.212933     0.451156     0.524998  Biso 1.000000     H
    H   1.0     0.421280     0.536337     0.658278  Biso 1.000000     H
    H   1.0     0.312001     0.238171     0.787150  Biso 1.000000     H
    H   1.0     0.122146     0.463840     0.885352  Biso 1.000000     H
    H   1.0     0.548724     0.761706     0.073611  Biso 1.000000     H
    H   1.0     0.877889     0.762852     0.341609  Biso 1.000000     H
    H   1.0     0.451155     0.525027     0.212937  Biso 1.000000     H
    H   1.0     0.578899     0.237097     0.115221  Biso 1.000000     H
    H   1.0     0.687952     0.475057     0.926070  Biso 1.000000     H
    H   1.0     0.762830     0.341583     0.877916  Biso 1.000000     H
    H   1.0     0.525005     0.212936     0.451165  Biso 1.000000     H
    H   1.0     0.237100     0.115237     0.578900  Biso 1.000000     H
    H   1.0     0.475042     0.926063     0.687980  Biso 1.000000     H
    H   1.0     0.536316     0.658262     0.421254  Biso 1.000000     H
    H   1.0     0.238167     0.787192     0.312039  Biso 1.000000     H
    H   1.0     0.463793     0.885336     0.122137  Biso 1.000000     H
    H   1.0     0.761688     0.073630     0.548754  Biso 1.000000     H
    H   1.0     0.371687     0.900383     0.371711  Biso 1.000000     H
    H   1.0     0.528531    -0.000112     0.628164  Biso 1.000000     H
    H   1.0     0.471525     0.099649     0.471527  Biso 1.000000     H
    H   1.0     0.628146    -0.000082     0.528553  Biso 1.000000     H
    H   1.0     0.471522     0.471524     0.099642  Biso 1.000000     H
    H   1.0     0.528518     0.628149    -0.000122  Biso 1.000000     H
    H   1.0     0.371669     0.371703     0.900360  Biso 1.000000     H
    H   1.0     0.628129     0.528551    -0.000086  Biso 1.000000     H
    H   1.0    -0.000092     0.628165     0.528566  Biso 1.000000     H
    H   1.0     0.900340     0.371676     0.371676  Biso 1.000000     H
    H   1.0    -0.000105     0.528561     0.628165  Biso 1.000000     H
    H   1.0     0.099644     0.471521     0.471523  Biso 1.000000     H
    C   1.0     0.419217     0.685106     0.476114  Biso 1.000000     C
    C   1.0     0.209097     0.943370     0.523983  Biso 1.000000     C
    C   1.0     0.790897     0.314755     0.734021  Biso 1.000000     C
    C   1.0     0.580883     0.057030     0.265947  Biso 1.000000     C
    C   1.0     0.733994     0.790914     0.314731  Biso 1.000000     C
    C   1.0     0.265941     0.580904     0.057037  Biso 1.000000     C
    C   1.0     0.476129     0.419237     0.685120  Biso 1.000000     C
    C   1.0     0.523962     0.209110     0.943362  Biso 1.000000     C
    C   1.0     0.943340     0.523979     0.209098  Biso 1.000000     C
    C   1.0     0.685090     0.476138     0.419242  Biso 1.000000     C
    C   1.0     0.057041     0.265951     0.580892  Biso 1.000000     C
    C   1.0     0.314726     0.734031     0.790923  Biso 1.000000     C
    C   1.0     0.943338     0.209101     0.523960  Biso 1.000000     C
    C   1.0     0.685086     0.419241     0.476132  Biso 1.000000     C
    C   1.0     0.057044     0.580912     0.265948  Biso 1.000000     C
    C   1.0     0.314727     0.790925     0.734032  Biso 1.000000     C
    C   1.0     0.419229     0.476133     0.685115  Biso 1.000000     C
    C   1.0     0.209098     0.523996     0.943367  Biso 1.000000     C
    C   1.0     0.790893     0.734018     0.314750  Biso 1.000000     C
    C   1.0     0.580887     0.265950     0.057032  Biso 1.000000     C
    C   1.0     0.733999     0.314738     0.790917  Biso 1.000000     C
    C   1.0     0.265948     0.057043     0.580904  Biso 1.000000     C
    C   1.0     0.476117     0.685112     0.419219  Biso 1.000000     C
    C   1.0     0.523955     0.943358     0.209094  Biso 1.000000     C
    C   1.0     0.370557     0.754239     0.370572  Biso 1.000000     C
    C   1.0     0.320212     0.809639     0.320232  Biso 1.000000     C
    C   1.0     0.383587    -0.000037     0.629432  Biso 1.000000     C
    C   1.0     0.489245    -0.000138     0.679710  Biso 1.000000     C
    C   1.0     0.616344     0.245662     0.616359  Biso 1.000000     C
    C   1.0     0.510724     0.190405     0.510734  Biso 1.000000     C
    C   1.0     0.629404    -0.000031     0.383597  Biso 1.000000     C
    C   1.0     0.679685    -0.000124     0.489260  Biso 1.000000     C
    C   1.0     0.616340     0.616356     0.245655  Biso 1.000000     C
    C   1.0     0.510721     0.510733     0.190399  Biso 1.000000     C
    C   1.0     0.383576     0.629423    -0.000046  Biso 1.000000     C
    C   1.0     0.489233     0.679697    -0.000149  Biso 1.000000     C
    C   1.0     0.370551     0.370570     0.754222  Biso 1.000000     C
    C   1.0     0.320199     0.320225     0.809615  Biso 1.000000     C
    C   1.0     0.629396     0.383599    -0.000032  Biso 1.000000     C
    C   1.0     0.679671     0.489261    -0.000127  Biso 1.000000     C
    C   1.0    -0.000030     0.629420     0.383611  Biso 1.000000     C
    C   1.0    -0.000132     0.679704     0.489280  Biso 1.000000     C
    C   1.0     0.754209     0.370565     0.370564  Biso 1.000000     C
    C   1.0     0.809603     0.320204     0.320204  Biso 1.000000     C
    C   1.0    -0.000034     0.383608     0.629417  Biso 1.000000     C
    C   1.0    -0.000136     0.489277     0.679706  Biso 1.000000     C
    C   1.0     0.245646     0.616357     0.616354  Biso 1.000000     C
    C   1.0     0.190393     0.510725     0.510722  Biso 1.000000     C
    N   1.0     0.352249     0.728449     0.444922  Biso 1.000000     N
    N   1.0     0.283546     0.907484     0.555091  Biso 1.000000     N
    N   1.0     0.716441     0.271451     0.623798  Biso 1.000000     N
    N   1.0     0.647789     0.092639     0.376140  Biso 1.000000     N
    N   1.0     0.623774     0.716454     0.271409  Biso 1.000000     N
    N   1.0     0.376126     0.647801     0.092633  Biso 1.000000     N
    N   1.0     0.444916     0.352266     0.728449  Biso 1.000000     N
    N   1.0     0.555061     0.283564     0.907484  Biso 1.000000     N
    N   1.0     0.907456     0.555075     0.283561  Biso 1.000000     N
    N   1.0     0.728435     0.444930     0.352271  Biso 1.000000     N
    N   1.0     0.092636     0.376149     0.647803  Biso 1.000000     N
    N   1.0     0.271412     0.623801     0.716453  Biso 1.000000     N
    N   1.0     0.907453     0.283560     0.555071  Biso 1.000000     N
    N   1.0     0.728429     0.352268     0.444924  Biso 1.000000     N
    N   1.0     0.092640     0.647811     0.376149  Biso 1.000000     N
    N   1.0     0.271413     0.716456     0.623800  Biso 1.000000     N
    N   1.0     0.352248     0.444927     0.728441  Biso 1.000000     N
    N   1.0     0.283544     0.555098     0.907478  Biso 1.000000     N
    N   1.0     0.716437     0.623795     0.271439  Biso 1.000000     N
    N   1.0     0.647792     0.376142     0.092639  Biso 1.000000     N
    N   1.0     0.623780     0.271425     0.716458  Biso 1.000000     N
    N   1.0     0.376135     0.092641     0.647806  Biso 1.000000     N
    N   1.0     0.444916     0.728456     0.352260  Biso 1.000000     N
    N   1.0     0.555059     0.907482     0.283549  Biso 1.000000     N
   Zn   1.0     0.249874     0.750056     0.499957  Biso 1.000000    Zn
   Zn   1.0     0.750040     0.249895     0.499940  Biso 1.000000    Zn
   Zn   1.0     0.499930     0.750061     0.249877  Biso 1.000000    Zn
   Zn   1.0     0.499933     0.249886     0.750061  Biso 1.000000    Zn
   Zn   1.0     0.750044     0.499942     0.249897  Biso 1.000000    Zn
   Zn   1.0     0.249868     0.499955     0.750048  Biso 1.000000    Zn
