#======================================================================

# CRYSTAL DATA

#----------------------------------------------------------------------

data_VESTA_phase_1


_pd_phase_name                         MOF
_cell_length_a                         14.77900
_cell_length_b                         14.77800
_cell_length_c                         14.77900
_cell_angle_alpha                      109.42300
_cell_angle_beta                       109.37800
_cell_angle_gamma                      109.37400
_symmetry_space_group_name_H-M         "P 1"
_symmetry_Int_Tables_number            1

loop_
_symmetry_equiv_pos_as_xyz
   "x, y, z"

loop_
   _atom_site_label
   _atom_site_occupancy
   _atom_site_fract_x
   _atom_site_fract_y
   _atom_site_fract_z
   _atom_site_adp_type
   _atom_site_B_iso_or_equiv
   _atom_site_type_symbol
    H   1.0     0.423115     0.660832     0.538220  Biso 1.000000     H
    H   1.0     0.310724     0.785627     0.236880  Biso 1.000000     H
    H   1.0     0.123204     0.886637     0.462104  Biso 1.000000     H
    H   1.0     0.547742     0.072690     0.762447  Biso 1.000000     H
    H   1.0     0.876926     0.338322     0.761824  Biso 1.000000     H
    H   1.0     0.451838     0.214485     0.525677  Biso 1.000000     H
    H   1.0     0.577786     0.116146     0.238257  Biso 1.000000     H
    H   1.0     0.688735     0.925415     0.474049  Biso 1.000000     H
    H   1.0     0.761745     0.876965     0.338186  Biso 1.000000     H
    H   1.0     0.525718     0.451783     0.214431  Biso 1.000000     H
    H   1.0     0.238324     0.577708     0.116204  Biso 1.000000     H
    H   1.0     0.474002     0.688687     0.925280  Biso 1.000000     H
    H   1.0     0.538389     0.423244     0.660986  Biso 1.000000     H
    H   1.0     0.236858     0.310821     0.785617  Biso 1.000000     H
    H   1.0     0.461988     0.123213     0.886527  Biso 1.000000     H
    H   1.0     0.762495     0.547801     0.072791  Biso 1.000000     H
    H   1.0     0.886581     0.462010     0.123174  Biso 1.000000     H
    H   1.0     0.072723     0.762557     0.547850  Biso 1.000000     H
    H   1.0     0.660894     0.538362     0.423232  Biso 1.000000     H
    H   1.0     0.785685     0.236842     0.310722  Biso 1.000000     H
    H   1.0     0.116146     0.238249     0.577661  Biso 1.000000     H
    H   1.0     0.925349     0.474163     0.688771  Biso 1.000000     H
    H   1.0     0.338244     0.761895     0.876956  Biso 1.000000     H
    H   1.0     0.214352     0.525579     0.451687  Biso 1.000000     H
    H   1.0     0.886601     0.123183     0.462022  Biso 1.000000     H
    H   1.0     0.072717     0.547890     0.762523  Biso 1.000000     H
    H   1.0     0.660904     0.423261     0.538345  Biso 1.000000     H
    H   1.0     0.785679     0.310724     0.236841  Biso 1.000000     H
    H   1.0     0.116125     0.577674     0.238223  Biso 1.000000     H
    H   1.0     0.925355     0.688801     0.474140  Biso 1.000000     H
    H   1.0     0.338275     0.877008     0.761845  Biso 1.000000     H
    H   1.0     0.214366     0.451709     0.525572  Biso 1.000000     H
    H   1.0     0.423128     0.538265     0.660830  Biso 1.000000     H
    H   1.0     0.310740     0.236898     0.785596  Biso 1.000000     H
    H   1.0     0.123209     0.462158     0.886597  Biso 1.000000     H
    H   1.0     0.547723     0.762482     0.072686  Biso 1.000000     H
    H   1.0     0.876919     0.761848     0.338311  Biso 1.000000     H
    H   1.0     0.451828     0.525691     0.214454  Biso 1.000000     H
    H   1.0     0.577758     0.238260     0.116133  Biso 1.000000     H
    H   1.0     0.688744     0.474067     0.925386  Biso 1.000000     H
    H   1.0     0.761754     0.338180     0.876929  Biso 1.000000     H
    H   1.0     0.525728     0.214460     0.451778  Biso 1.000000     H
    H   1.0     0.238332     0.116221     0.577706  Biso 1.000000     H
    H   1.0     0.474002     0.925310     0.688656  Biso 1.000000     H
    H   1.0     0.538382     0.660997     0.423218  Biso 1.000000     H
    H   1.0     0.236845     0.785649     0.310797  Biso 1.000000     H
    H   1.0     0.461961     0.886564     0.123206  Biso 1.000000     H
    H   1.0     0.762499     0.072795     0.547789  Biso 1.000000     H
    H   1.0     0.369616     0.899175     0.369719  Biso 1.000000     H
    H   1.0     0.528603    -0.000757     0.629376  Biso 1.000000     H
    H   1.0     0.471276     0.100675     0.471174  Biso 1.000000     H
    H   1.0     0.629499    -0.000555     0.528705  Biso 1.000000     H
    H   1.0     0.471284     0.471204     0.100663  Biso 1.000000     H
    H   1.0     0.528597     0.629406    -0.000745  Biso 1.000000     H
    H   1.0     0.369626     0.369737     0.899145  Biso 1.000000     H
    H   1.0     0.629496     0.528728    -0.000554  Biso 1.000000     H
    H   1.0    -0.000645     0.629533     0.528748  Biso 1.000000     H
    H   1.0     0.899180     0.369653     0.369646  Biso 1.000000     H
    H   1.0    -0.000667     0.528760     0.629494  Biso 1.000000     H
    H   1.0     0.100620     0.471185     0.471176  Biso 1.000000     H
    C   1.0     0.420447     0.686910     0.477372  Biso 1.000000     C
    C   1.0     0.209829     0.944210     0.522898  Biso 1.000000     C
    C   1.0     0.790174     0.312313     0.733260  Biso 1.000000     C
    C   1.0     0.580111     0.057697     0.266707  Biso 1.000000     C
    C   1.0     0.733220     0.790208     0.312248  Biso 1.000000     C
    C   1.0     0.266736     0.580083     0.057725  Biso 1.000000     C
    C   1.0     0.477458     0.420525     0.686976  Biso 1.000000     C
    C   1.0     0.522845     0.209842     0.944136  Biso 1.000000     C
    C   1.0     0.944158     0.522836     0.209819  Biso 1.000000     C
    C   1.0     0.686954     0.477473     0.420530  Biso 1.000000     C
    C   1.0     0.057698     0.266717     0.580029  Biso 1.000000     C
    C   1.0     0.312257     0.733311     0.790185  Biso 1.000000     C
    C   1.0     0.944174     0.209834     0.522840  Biso 1.000000     C
    C   1.0     0.686960     0.420552     0.477458  Biso 1.000000     C
    C   1.0     0.057682     0.580037     0.266694  Biso 1.000000     C
    C   1.0     0.312270     0.790230     0.733266  Biso 1.000000     C
    C   1.0     0.420460     0.477411     0.686903  Biso 1.000000     C
    C   1.0     0.209836     0.522941     0.944171  Biso 1.000000     C
    C   1.0     0.790169     0.733285     0.312308  Biso 1.000000     C
    C   1.0     0.580092     0.266712     0.057688  Biso 1.000000     C
    C   1.0     0.733227     0.312247     0.790178  Biso 1.000000     C
    C   1.0     0.266746     0.057736     0.580068  Biso 1.000000     C
    C   1.0     0.477447     0.686986     0.420494  Biso 1.000000     C
    C   1.0     0.522827     0.944172     0.209830  Biso 1.000000     C
    C   1.0     0.370245     0.754176     0.370273  Biso 1.000000     C
    C   1.0     0.318898     0.808480     0.318960  Biso 1.000000     C
    C   1.0     0.383495    -0.000133     0.629589  Biso 1.000000     C
    C   1.0     0.488709    -0.000780     0.680453  Biso 1.000000     C
    C   1.0     0.616264     0.245321     0.616235  Biso 1.000000     C
    C   1.0     0.511025     0.191413     0.510962  Biso 1.000000     C
    C   1.0     0.629629    -0.000078     0.383517  Biso 1.000000     C
    C   1.0     0.680529    -0.000659     0.488763  Biso 1.000000     C
    C   1.0     0.616262     0.616259     0.245320  Biso 1.000000     C
    C   1.0     0.511022     0.510980     0.191396  Biso 1.000000     C
    C   1.0     0.383482     0.629616    -0.000133  Biso 1.000000     C
    C   1.0     0.488694     0.680480    -0.000776  Biso 1.000000     C
    C   1.0     0.370266     0.370310     0.754167  Biso 1.000000     C
    C   1.0     0.318913     0.318983     0.808453  Biso 1.000000     C
    C   1.0     0.629619     0.383527    -0.000078  Biso 1.000000     C
    C   1.0     0.680522     0.488776    -0.000658  Biso 1.000000     C
    C   1.0    -0.000109     0.629615     0.383555  Biso 1.000000     C
    C   1.0    -0.000713     0.680561     0.488824  Biso 1.000000     C
    C   1.0     0.754226     0.370299     0.370291  Biso 1.000000     C
    C   1.0     0.808517     0.318918     0.318915  Biso 1.000000     C
    C   1.0    -0.000103     0.383579     0.629598  Biso 1.000000     C
    C   1.0    -0.000721     0.488849     0.680533  Biso 1.000000     C
    C   1.0     0.245243     0.616226     0.616196  Biso 1.000000     C
    C   1.0     0.191323     0.510918     0.510901  Biso 1.000000     C
    N   1.0     0.352385     0.728964     0.445140  Biso 1.000000     N
    N   1.0     0.283674     0.907799     0.554679  Biso 1.000000     N
    N   1.0     0.716179     0.270380     0.623420  Biso 1.000000     N
    N   1.0     0.647913     0.092752     0.376363  Biso 1.000000     N
    N   1.0     0.623403     0.716172     0.270279  Biso 1.000000     N
    N   1.0     0.376373     0.647824     0.092726  Biso 1.000000     N
    N   1.0     0.445234     0.352517     0.729066  Biso 1.000000     N
    N   1.0     0.554628     0.283730     0.907791  Biso 1.000000     N
    N   1.0     0.907800     0.554644     0.283738  Biso 1.000000     N
    N   1.0     0.729051     0.445216     0.352488  Biso 1.000000     N
    N   1.0     0.092710     0.376407     0.647807  Biso 1.000000     N
    N   1.0     0.270271     0.623437     0.716123  Biso 1.000000     N
    N   1.0     0.907810     0.283752     0.554649  Biso 1.000000     N
    N   1.0     0.729061     0.352505     0.445210  Biso 1.000000     N
    N   1.0     0.092700     0.647823     0.376379  Biso 1.000000     N
    N   1.0     0.270289     0.716157     0.623401  Biso 1.000000     N
    N   1.0     0.352399     0.445178     0.728952  Biso 1.000000     N
    N   1.0     0.283681     0.554725     0.907768  Biso 1.000000     N
    N   1.0     0.716176     0.623441     0.270374  Biso 1.000000     N
    N   1.0     0.647892     0.376372     0.092746  Biso 1.000000     N
    N   1.0     0.623408     0.270279     0.716143  Biso 1.000000     N
    N   1.0     0.376383     0.092733     0.647811  Biso 1.000000     N
    N   1.0     0.445220     0.729082     0.352491  Biso 1.000000     N
    N   1.0     0.554604     0.907821     0.283715  Biso 1.000000     N
   Zn   1.0     0.249566     0.750297     0.499877  Biso 1.000000    Zn
   Zn   1.0     0.750385     0.249690     0.499894  Biso 1.000000    Zn
   Zn   1.0     0.499881     0.750353     0.249628  Biso 1.000000    Zn
   Zn   1.0     0.499895     0.249639     0.750330  Biso 1.000000    Zn
   Zn   1.0     0.750377     0.499900     0.249680  Biso 1.000000    Zn
   Zn   1.0     0.249571     0.499919     0.750274  Biso 1.000000    Zn
