#======================================================================

# CRYSTAL DATA

#----------------------------------------------------------------------

data_VESTA_phase_1


_pd_phase_name                         MOF
_cell_length_a                         14.80800
_cell_length_b                         14.80800
_cell_length_c                         14.80800
_cell_angle_alpha                      109.47100
_cell_angle_beta                       109.47100
_cell_angle_gamma                      109.47100
_symmetry_space_group_name_H-M         "P 1"
_symmetry_Int_Tables_number            1

loop_
_symmetry_equiv_pos_as_xyz
   "x, y, z"

loop_
   _atom_site_label
   _atom_site_occupancy
   _atom_site_fract_x
   _atom_site_fract_y
   _atom_site_fract_z
   _atom_site_adp_type
   _atom_site_B_iso_or_equiv
   _atom_site_type_symbol
    H   1.0     0.419075     0.656680     0.533953  Biso 1.000000     H
    H   1.0     0.312355     0.788547     0.238637  Biso 1.000000     H
    H   1.0     0.122719     0.885176     0.466072  Biso 1.000000     H
    H   1.0     0.549898     0.073721     0.761381  Biso 1.000000     H
    H   1.0     0.877270     0.343325     0.762417  Biso 1.000000     H
    H   1.0     0.450091     0.211457     0.523822  Biso 1.000000     H
    H   1.0     0.580960     0.114848     0.237596  Biso 1.000000     H
    H   1.0     0.687647     0.926269     0.476195  Biso 1.000000     H
    H   1.0     0.762402     0.877276     0.343357  Biso 1.000000     H
    H   1.0     0.523825     0.450093     0.211474  Biso 1.000000     H
    H   1.0     0.237569     0.580914     0.114828  Biso 1.000000     H
    H   1.0     0.476181     0.687653     0.926281  Biso 1.000000     H
    H   1.0     0.533964     0.419092     0.656689  Biso 1.000000     H
    H   1.0     0.238629     0.312357     0.788532  Biso 1.000000     H
    H   1.0     0.466070     0.122728     0.885168  Biso 1.000000     H
    H   1.0     0.761390     0.549911     0.073727  Biso 1.000000     H
    H   1.0     0.885176     0.466113     0.122721  Biso 1.000000     H
    H   1.0     0.073718     0.761384     0.549904  Biso 1.000000     H
    H   1.0     0.656710     0.533950     0.419106  Biso 1.000000     H
    H   1.0     0.788571     0.238632     0.312362  Biso 1.000000     H
    H   1.0     0.114865     0.237608     0.580885  Biso 1.000000     H
    H   1.0     0.926285     0.476183     0.687644  Biso 1.000000     H
    H   1.0     0.343362     0.762438     0.877291  Biso 1.000000     H
    H   1.0     0.211484     0.523850     0.450108  Biso 1.000000     H
    H   1.0     0.885185     0.122737     0.466105  Biso 1.000000     H
    H   1.0     0.073719     0.549921     0.761379  Biso 1.000000     H
    H   1.0     0.656696     0.419083     0.533939  Biso 1.000000     H
    H   1.0     0.788568     0.312351     0.238628  Biso 1.000000     H
    H   1.0     0.114856     0.580889     0.237596  Biso 1.000000     H
    H   1.0     0.926284     0.687658     0.476180  Biso 1.000000     H
    H   1.0     0.343269     0.877277     0.762429  Biso 1.000000     H
    H   1.0     0.211476     0.450115     0.523828  Biso 1.000000     H
    H   1.0     0.419117     0.533946     0.656681  Biso 1.000000     H
    H   1.0     0.312361     0.238635     0.788550  Biso 1.000000     H
    H   1.0     0.122734     0.466024     0.885142  Biso 1.000000     H
    H   1.0     0.549915     0.761383     0.073723  Biso 1.000000     H
    H   1.0     0.877249     0.762423     0.343271  Biso 1.000000     H
    H   1.0     0.450083     0.523806     0.211450  Biso 1.000000     H
    H   1.0     0.580913     0.237590     0.114855  Biso 1.000000     H
    H   1.0     0.687654     0.476179     0.926284  Biso 1.000000     H
    H   1.0     0.762416     0.343295     0.877264  Biso 1.000000     H
    H   1.0     0.523811     0.211446     0.450088  Biso 1.000000     H
    H   1.0     0.237586     0.114858     0.580905  Biso 1.000000     H
    H   1.0     0.476170     0.926285     0.687656  Biso 1.000000     H
    H   1.0     0.533928     0.656677     0.419105  Biso 1.000000     H
    H   1.0     0.238623     0.788554     0.312359  Biso 1.000000     H
    H   1.0     0.466040     0.885165     0.122755  Biso 1.000000     H
    H   1.0     0.761372     0.073706     0.549928  Biso 1.000000     H
    H   1.0     0.372473     0.901188     0.372480  Biso 1.000000     H
    H   1.0     0.528694    -0.000004     0.627536  Biso 1.000000     H
    H   1.0     0.471293     0.098813     0.471307  Biso 1.000000     H
    H   1.0     0.627520    -0.000030     0.528706  Biso 1.000000     H
    H   1.0     0.471304     0.471281     0.098820  Biso 1.000000     H
    H   1.0     0.528709     0.627536    -0.000009  Biso 1.000000     H
    H   1.0     0.372470     0.372484     0.901180  Biso 1.000000     H
    H   1.0     0.627546     0.528711     0.000005  Biso 1.000000     H
    H   1.0    -0.000004     0.627540     0.528701  Biso 1.000000     H
    H   1.0     0.901210     0.372475     0.372474  Biso 1.000000     H
    H   1.0    -0.000004     0.528709     0.627529  Biso 1.000000     H
    H   1.0     0.098839     0.471327     0.471309  Biso 1.000000     H
    C   1.0     0.417470     0.684007     0.474285  Biso 1.000000     C
    C   1.0     0.209716     0.943233     0.525734  Biso 1.000000     C
    C   1.0     0.790274     0.315991     0.733484  Biso 1.000000     C
    C   1.0     0.582546     0.056783     0.266531  Biso 1.000000     C
    C   1.0     0.733470     0.790278     0.316008  Biso 1.000000     C
    C   1.0     0.266510     0.582518     0.056772  Biso 1.000000     C
    C   1.0     0.474297     0.417490     0.684016  Biso 1.000000     C
    C   1.0     0.525732     0.209723     0.943227  Biso 1.000000     C
    C   1.0     0.943233     0.525759     0.209721  Biso 1.000000     C
    C   1.0     0.684038     0.474282     0.417497  Biso 1.000000     C
    C   1.0     0.056803     0.266535     0.582511  Biso 1.000000     C
    C   1.0     0.316014     0.733504     0.790293  Biso 1.000000     C
    C   1.0     0.943244     0.209735     0.525756  Biso 1.000000     C
    C   1.0     0.684021     0.417477     0.474269  Biso 1.000000     C
    C   1.0     0.056792     0.582516     0.266521  Biso 1.000000     C
    C   1.0     0.315978     0.790289     0.733500  Biso 1.000000     C
    C   1.0     0.417502     0.474273     0.684003  Biso 1.000000     C
    C   1.0     0.209724     0.525705     0.943205  Biso 1.000000     C
    C   1.0     0.790260     0.733490     0.315975  Biso 1.000000     C
    C   1.0     0.582526     0.266522     0.056793  Biso 1.000000     C
    C   1.0     0.733485     0.315983     0.790273  Biso 1.000000     C
    C   1.0     0.266513     0.056794     0.582523  Biso 1.000000     C
    C   1.0     0.474259     0.684003     0.417496  Biso 1.000000     C
    C   1.0     0.525724     0.943222     0.209745  Biso 1.000000     C
    C   1.0     0.369997     0.754391     0.370019  Biso 1.000000     C
    C   1.0     0.320507     0.810595     0.320520  Biso 1.000000     C
    C   1.0     0.384365    -0.000003     0.630004  Biso 1.000000     C
    C   1.0     0.490062    -0.000005     0.679497  Biso 1.000000     C
    C   1.0     0.615625     0.245608     0.615625  Biso 1.000000     C
    C   1.0     0.509926     0.189406     0.509931  Biso 1.000000     C
    C   1.0     0.629998    -0.000014     0.384390  Biso 1.000000     C
    C   1.0     0.679491    -0.000021     0.490084  Biso 1.000000     C
    C   1.0     0.615619     0.615624     0.245617  Biso 1.000000     C
    C   1.0     0.509927     0.509921     0.189413  Biso 1.000000     C
    C   1.0     0.384381     0.629999    -0.000006  Biso 1.000000     C
    C   1.0     0.490080     0.679501    -0.000004  Biso 1.000000     C
    C   1.0     0.370021     0.370014     0.754392  Biso 1.000000     C
    C   1.0     0.320515     0.320517     0.810588  Biso 1.000000     C
    C   1.0     0.630003     0.384380     0.000001  Biso 1.000000     C
    C   1.0     0.679506     0.490077     0.000001  Biso 1.000000     C
    C   1.0    -0.000007     0.630003     0.384371  Biso 1.000000     C
    C   1.0    -0.000008     0.679500     0.490068  Biso 1.000000     C
    C   1.0     0.754411     0.370008     0.370006  Biso 1.000000     C
    C   1.0     0.810618     0.320514     0.320514  Biso 1.000000     C
    C   1.0     0.000008     0.384387     0.630001  Biso 1.000000     C
    C   1.0    -0.000002     0.490080     0.679493  Biso 1.000000     C
    C   1.0     0.245624     0.615647     0.615640  Biso 1.000000     C
    C   1.0     0.189432     0.509954     0.509941  Biso 1.000000     C
    N   1.0     0.351324     0.728146     0.443851  Biso 1.000000     N
    N   1.0     0.284281     0.907514     0.556176  Biso 1.000000     N
    N   1.0     0.715705     0.271867     0.623202  Biso 1.000000     N
    N   1.0     0.648703     0.092492     0.376812  Biso 1.000000     N
    N   1.0     0.623190     0.715703     0.271882  Biso 1.000000     N
    N   1.0     0.376795     0.648678     0.092493  Biso 1.000000     N
    N   1.0     0.443847     0.351333     0.728140  Biso 1.000000     N
    N   1.0     0.556175     0.284291     0.907511  Biso 1.000000     N
    N   1.0     0.907512     0.556198     0.284286  Biso 1.000000     N
    N   1.0     0.728171     0.443847     0.351343  Biso 1.000000     N
    N   1.0     0.092514     0.376819     0.648657  Biso 1.000000     N
    N   1.0     0.271906     0.623226     0.715724  Biso 1.000000     N
    N   1.0     0.907526     0.284301     0.556198  Biso 1.000000     N
    N   1.0     0.728162     0.351333     0.443836  Biso 1.000000     N
    N   1.0     0.092499     0.648661     0.376804  Biso 1.000000     N
    N   1.0     0.271847     0.715723     0.623216  Biso 1.000000     N
    N   1.0     0.351347     0.443839     0.728134  Biso 1.000000     N
    N   1.0     0.284300     0.556151     0.907499  Biso 1.000000     N
    N   1.0     0.715695     0.623203     0.271836  Biso 1.000000     N
    N   1.0     0.648678     0.376804     0.092504  Biso 1.000000     N
    N   1.0     0.623201     0.271848     0.715703  Biso 1.000000     N
    N   1.0     0.376796     0.092502     0.648669  Biso 1.000000     N
    N   1.0     0.443820     0.728132     0.351340  Biso 1.000000     N
    N   1.0     0.556152     0.907502     0.284312  Biso 1.000000     N
   Zn   1.0     0.249987     0.750017     0.500014  Biso 1.000000    Zn
   Zn   1.0     0.750023     0.249995     0.500009  Biso 1.000000    Zn
   Zn   1.0     0.499980     0.749995     0.250001  Biso 1.000000    Zn
   Zn   1.0     0.500006     0.249994     0.750011  Biso 1.000000    Zn
   Zn   1.0     0.750014     0.500014     0.249997  Biso 1.000000    Zn
   Zn   1.0     0.250019     0.500012     0.750003  Biso 1.000000    Zn
