#======================================================================

# CRYSTAL DATA

#----------------------------------------------------------------------

data_VESTA_phase_1


_pd_phase_name                         MOF
_cell_length_a                         14.84500
_cell_length_b                         14.83100
_cell_length_c                         14.84200
_cell_angle_alpha                      109.49400
_cell_angle_beta                       109.45800
_cell_angle_gamma                      109.47700
_symmetry_space_group_name_H-M         "P 1"
_symmetry_Int_Tables_number            1

loop_
_symmetry_equiv_pos_as_xyz
   "x, y, z"

loop_
   _atom_site_label
   _atom_site_occupancy
   _atom_site_fract_x
   _atom_site_fract_y
   _atom_site_fract_z
   _atom_site_adp_type
   _atom_site_B_iso_or_equiv
   _atom_site_type_symbol
    H   1.0     0.412054     0.648649     0.528501  Biso 1.000000     H
    H   1.0     0.315302     0.791618     0.242184  Biso 1.000000     H
    H   1.0     0.122002     0.883077     0.470466  Biso 1.000000     H
    H   1.0     0.551888     0.072249     0.754856  Biso 1.000000     H
    H   1.0     0.876799     0.346493     0.762888  Biso 1.000000     H
    H   1.0     0.447623     0.203002     0.522053  Biso 1.000000     H
    H   1.0     0.585494     0.112834     0.238344  Biso 1.000000     H
    H   1.0     0.682803     0.923882     0.478649  Biso 1.000000     H
    H   1.0     0.761399     0.875358     0.349388  Biso 1.000000     H
    H   1.0     0.520658     0.447203     0.209804  Biso 1.000000     H
    H   1.0     0.237027     0.583164     0.115061  Biso 1.000000     H
    H   1.0     0.477940     0.681544     0.926994  Biso 1.000000     H
    H   1.0     0.529151     0.413264     0.652839  Biso 1.000000     H
    H   1.0     0.238703     0.309298     0.789353  Biso 1.000000     H
    H   1.0     0.469265     0.120536     0.884155  Biso 1.000000     H
    H   1.0     0.756003     0.550220     0.074098  Biso 1.000000     H
    H   1.0     0.883478     0.467569     0.122807  Biso 1.000000     H
    H   1.0     0.072455     0.754311     0.552130  Biso 1.000000     H
    H   1.0     0.651803     0.527463     0.415269  Biso 1.000000     H
    H   1.0     0.794522     0.240504     0.318085  Biso 1.000000     H
    H   1.0     0.114623     0.236157     0.585501  Biso 1.000000     H
    H   1.0     0.925666     0.476349     0.683743  Biso 1.000000     H
    H   1.0     0.348606     0.761450     0.877727  Biso 1.000000     H
    H   1.0     0.200565     0.519802     0.447040  Biso 1.000000     H
    H   1.0     0.885492     0.121719     0.470521  Biso 1.000000     H
    H   1.0     0.072774     0.549520     0.760682  Biso 1.000000     H
    H   1.0     0.654111     0.414087     0.531067  Biso 1.000000     H
    H   1.0     0.783274     0.304467     0.235442  Biso 1.000000     H
    H   1.0     0.112632     0.581659     0.237878  Biso 1.000000     H
    H   1.0     0.925402     0.685204     0.477778  Biso 1.000000     H
    H   1.0     0.346131     0.874774     0.761884  Biso 1.000000     H
    H   1.0     0.212285     0.448395     0.522210  Biso 1.000000     H
    H   1.0     0.415708     0.529027     0.654691  Biso 1.000000     H
    H   1.0     0.314396     0.237861     0.791558  Biso 1.000000     H
    H   1.0     0.123085     0.468332     0.885879  Biso 1.000000     H
    H   1.0     0.550774     0.758037     0.074126  Biso 1.000000     H
    H   1.0     0.875599     0.760383     0.348096  Biso 1.000000     H
    H   1.0     0.446936     0.520600     0.207159  Biso 1.000000     H
    H   1.0     0.582132     0.235444     0.113319  Biso 1.000000     H
    H   1.0     0.686902     0.476120     0.927026  Biso 1.000000     H
    H   1.0     0.761402     0.345370     0.876617  Biso 1.000000     H
    H   1.0     0.522198     0.209256     0.449669  Biso 1.000000     H
    H   1.0     0.237634     0.112484     0.584130  Biso 1.000000     H
    H   1.0     0.477008     0.925244     0.688656  Biso 1.000000     H
    H   1.0     0.528071     0.650539     0.415367  Biso 1.000000     H
    H   1.0     0.236788     0.785857     0.310639  Biso 1.000000     H
    H   1.0     0.469650     0.883437     0.124176  Biso 1.000000     H
    H   1.0     0.759579     0.071141     0.551626  Biso 1.000000     H
    H   1.0     0.370642     0.900124     0.376784  Biso 1.000000     H
    H   1.0     0.523267    -0.009727     0.619862  Biso 1.000000     H
    H   1.0     0.474477     0.094971     0.469367  Biso 1.000000     H
    H   1.0     0.625296     0.001272     0.530205  Biso 1.000000     H
    H   1.0     0.471804     0.469122     0.097363  Biso 1.000000     H
    H   1.0     0.529062     0.623534     0.003914  Biso 1.000000     H
    H   1.0     0.372666     0.372185     0.902127  Biso 1.000000     H
    H   1.0     0.621334     0.524085    -0.004399  Biso 1.000000     H
    H   1.0    -0.006288     0.619350     0.525588  Biso 1.000000     H
    H   1.0     0.900218     0.374961     0.368202  Biso 1.000000     H
    H   1.0     0.003067     0.528112     0.626370  Biso 1.000000     H
    H   1.0     0.095925     0.465333     0.477307  Biso 1.000000     H
    C   1.0     0.411937     0.677800     0.470507  Biso 1.000000     C
    C   1.0     0.209175     0.940790     0.528472  Biso 1.000000     C
    C   1.0     0.789669     0.317498     0.733400  Biso 1.000000     C
    C   1.0     0.585597     0.054929     0.267612  Biso 1.000000     C
    C   1.0     0.732120     0.788136     0.320237  Biso 1.000000     C
    C   1.0     0.266407     0.583624     0.057317  Biso 1.000000     C
    C   1.0     0.470742     0.412610     0.681499  Biso 1.000000     C
    C   1.0     0.527369     0.207728     0.942141  Biso 1.000000     C
    C   1.0     0.941285     0.525881     0.209926  Biso 1.000000     C
    C   1.0     0.680372     0.468916     0.414410  Biso 1.000000     C
    C   1.0     0.056791     0.265395     0.586040  Biso 1.000000     C
    C   1.0     0.319091     0.731713     0.790462  Biso 1.000000     C
    C   1.0     0.943465     0.208809     0.529139  Biso 1.000000     C
    C   1.0     0.681533     0.412871     0.471698  Biso 1.000000     C
    C   1.0     0.054610     0.582318     0.266814  Biso 1.000000     C
    C   1.0     0.317910     0.787770     0.733181  Biso 1.000000     C
    C   1.0     0.414612     0.469819     0.682370  Biso 1.000000     C
    C   1.0     0.210073     0.526853     0.943992  Biso 1.000000     C
    C   1.0     0.788597     0.731271     0.319608  Biso 1.000000     C
    C   1.0     0.583257     0.264533     0.055465  Biso 1.000000     C
    C   1.0     0.732605     0.316966     0.789649  Biso 1.000000     C
    C   1.0     0.266329     0.054232     0.584675  Biso 1.000000     C
    C   1.0     0.469298     0.678725     0.414565  Biso 1.000000     C
    C   1.0     0.528324     0.941487     0.211169  Biso 1.000000     C
    C   1.0     0.367608     0.751816     0.369629  Biso 1.000000     C
    C   1.0     0.319868     0.809895     0.322063  Biso 1.000000     C
    C   1.0     0.383897    -0.003151     0.628955  Biso 1.000000     C
    C   1.0     0.489296    -0.003813     0.675858  Biso 1.000000     C
    C   1.0     0.614984     0.243471     0.614696  Biso 1.000000     C
    C   1.0     0.509544     0.185149     0.508681  Biso 1.000000     C
    C   1.0     0.629702    -0.001586     0.386014  Biso 1.000000     C
    C   1.0     0.677093    -0.001339     0.491884  Biso 1.000000     C
    C   1.0     0.613767     0.613074     0.245923  Biso 1.000000     C
    C   1.0     0.508008     0.507240     0.187530  Biso 1.000000     C
    C   1.0     0.385011     0.628175     0.001128  Biso 1.000000     C
    C   1.0     0.490970     0.675581     0.001534  Biso 1.000000     C
    C   1.0     0.369067     0.367179     0.754445  Biso 1.000000     C
    C   1.0     0.320949     0.318829     0.811854  Biso 1.000000     C
    C   1.0     0.628479     0.382779    -0.001056  Biso 1.000000     C
    C   1.0     0.675978     0.488598    -0.001045  Biso 1.000000     C
    C   1.0    -0.002327     0.626973     0.384758  Biso 1.000000     C
    C   1.0    -0.002658     0.674244     0.490356  Biso 1.000000     C
    C   1.0     0.753105     0.367070     0.368645  Biso 1.000000     C
    C   1.0     0.810250     0.318936     0.319836  Biso 1.000000     C
    C   1.0     0.000307     0.383815     0.630666  Biso 1.000000     C
    C   1.0     0.000447     0.489727     0.678130  Biso 1.000000     C
    C   1.0     0.244277     0.612575     0.615627  Biso 1.000000     C
    C   1.0     0.185725     0.506270     0.510250  Biso 1.000000     C
    N   1.0     0.347452     0.723708     0.441739  Biso 1.000000     N
    N   1.0     0.283537     0.904659     0.556868  Biso 1.000000     N
    N   1.0     0.715254     0.271369     0.622888  Biso 1.000000     N
    N   1.0     0.649957     0.090741     0.378042  Biso 1.000000     N
    N   1.0     0.621675     0.713346     0.273977  Biso 1.000000     N
    N   1.0     0.376902     0.647919     0.093276  Biso 1.000000     N
    N   1.0     0.441556     0.347479     0.726726  Biso 1.000000     N
    N   1.0     0.556333     0.282521     0.906553  Biso 1.000000     N
    N   1.0     0.905450     0.554498     0.284526  Biso 1.000000     N
    N   1.0     0.725235     0.439533     0.348982  Biso 1.000000     N
    N   1.0     0.092546     0.375920     0.650490  Biso 1.000000     N
    N   1.0     0.272883     0.621046     0.716088  Biso 1.000000     N
    N   1.0     0.907909     0.283731     0.557731  Biso 1.000000     N
    N   1.0     0.727161     0.348205     0.442352  Biso 1.000000     N
    N   1.0     0.090084     0.646481     0.377253  Biso 1.000000     N
    N   1.0     0.270930     0.712383     0.622714  Biso 1.000000     N
    N   1.0     0.350079     0.440687     0.728123  Biso 1.000000     N
    N   1.0     0.285099     0.555406     0.908612  Biso 1.000000     N
    N   1.0     0.713707     0.620675     0.272943  Biso 1.000000     N
    N   1.0     0.647468     0.375108     0.091235  Biso 1.000000     N
    N   1.0     0.622241     0.270479     0.714536  Biso 1.000000     N
    N   1.0     0.376710     0.089518     0.648478  Biso 1.000000     N
    N   1.0     0.440917     0.725226     0.350587  Biso 1.000000     N
    N   1.0     0.556607     0.905903     0.286072  Biso 1.000000     N
   Zn   1.0     0.247797     0.746736     0.499634  Biso 1.000000    Zn
   Zn   1.0     0.750374     0.248583     0.500372  Biso 1.000000    Zn
   Zn   1.0     0.499017     0.748215     0.251069  Biso 1.000000    Zn
   Zn   1.0     0.499222     0.247323     0.748877  Biso 1.000000    Zn
   Zn   1.0     0.747799     0.497363     0.249115  Biso 1.000000    Zn
   Zn   1.0     0.250261     0.498396     0.751127  Biso 1.000000    Zn
