#======================================================================

# CRYSTAL DATA

#----------------------------------------------------------------------

data_VESTA_phase_1


_pd_phase_name                         MOF
_cell_length_a                         14.80300
_cell_length_b                         14.80400
_cell_length_c                         14.80400
_cell_angle_alpha                      109.45800
_cell_angle_beta                       109.45700
_cell_angle_gamma                      109.45700
_symmetry_space_group_name_H-M         "P 1"
_symmetry_Int_Tables_number            1

loop_
_symmetry_equiv_pos_as_xyz
   "x, y, z"

loop_
   _atom_site_label
   _atom_site_occupancy
   _atom_site_fract_x
   _atom_site_fract_y
   _atom_site_fract_z
   _atom_site_adp_type
   _atom_site_B_iso_or_equiv
   _atom_site_type_symbol
    H   1.0     0.417701     0.654954     0.532584  Biso 1.000000     H
    H   1.0     0.313832     0.790701     0.240080  Biso 1.000000     H
    H   1.0     0.121939     0.885299     0.467457  Biso 1.000000     H
    H   1.0     0.549916     0.073469     0.759773  Biso 1.000000     H
    H   1.0     0.877331     0.344277     0.762396  Biso 1.000000     H
    H   1.0     0.449539     0.209810     0.523272  Biso 1.000000     H
    H   1.0     0.582380     0.114877     0.236810  Biso 1.000000     H
    H   1.0     0.686279     0.925967     0.476107  Biso 1.000000     H
    H   1.0     0.762469     0.877280     0.344299  Biso 1.000000     H
    H   1.0     0.523300     0.449467     0.209680  Biso 1.000000     H
    H   1.0     0.236814     0.582402     0.114937  Biso 1.000000     H
    H   1.0     0.476121     0.686115     0.925951  Biso 1.000000     H
    H   1.0     0.532541     0.417692     0.654910  Biso 1.000000     H
    H   1.0     0.240099     0.313912     0.790772  Biso 1.000000     H
    H   1.0     0.467416     0.121957     0.885251  Biso 1.000000     H
    H   1.0     0.759802     0.549894     0.073469  Biso 1.000000     H
    H   1.0     0.885350     0.467428     0.121989  Biso 1.000000     H
    H   1.0     0.073448     0.759747     0.549940  Biso 1.000000     H
    H   1.0     0.654805     0.532441     0.417567  Biso 1.000000     H
    H   1.0     0.790753     0.240076     0.313852  Biso 1.000000     H
    H   1.0     0.114973     0.236906     0.582442  Biso 1.000000     H
    H   1.0     0.925938     0.476120     0.686146  Biso 1.000000     H
    H   1.0     0.344406     0.762510     0.877378  Biso 1.000000     H
    H   1.0     0.209801     0.523358     0.449579  Biso 1.000000     H
    H   1.0     0.885313     0.121963     0.467417  Biso 1.000000     H
    H   1.0     0.073391     0.549913     0.759721  Biso 1.000000     H
    H   1.0     0.654774     0.417547     0.532430  Biso 1.000000     H
    H   1.0     0.790781     0.313857     0.240113  Biso 1.000000     H
    H   1.0     0.115009     0.582486     0.236910  Biso 1.000000     H
    H   1.0     0.925995     0.686171     0.476149  Biso 1.000000     H
    H   1.0     0.344442     0.877401     0.762514  Biso 1.000000     H
    H   1.0     0.209799     0.449599     0.523330  Biso 1.000000     H
    H   1.0     0.417666     0.532583     0.654931  Biso 1.000000     H
    H   1.0     0.313826     0.240112     0.790719  Biso 1.000000     H
    H   1.0     0.121910     0.467454     0.885280  Biso 1.000000     H
    H   1.0     0.549878     0.759734     0.073410  Biso 1.000000     H
    H   1.0     0.877355     0.762402     0.344301  Biso 1.000000     H
    H   1.0     0.449555     0.523241     0.209779  Biso 1.000000     H
    H   1.0     0.582428     0.236814     0.114908  Biso 1.000000     H
    H   1.0     0.686293     0.476144     0.926010  Biso 1.000000     H
    H   1.0     0.762479     0.344349     0.877307  Biso 1.000000     H
    H   1.0     0.523272     0.209676     0.449487  Biso 1.000000     H
    H   1.0     0.236820     0.114964     0.582438  Biso 1.000000     H
    H   1.0     0.476159     0.926003     0.686124  Biso 1.000000     H
    H   1.0     0.532524     0.654859     0.417641  Biso 1.000000     H
    H   1.0     0.240146     0.790802     0.313920  Biso 1.000000     H
    H   1.0     0.467401     0.885212     0.121919  Biso 1.000000     H
    H   1.0     0.759777     0.073433     0.549875  Biso 1.000000     H
    H   1.0     0.374482     0.902726     0.374393  Biso 1.000000     H
    H   1.0     0.527696    -0.000300     0.625478  Biso 1.000000     H
    H   1.0     0.471418     0.097497     0.471517  Biso 1.000000     H
    H   1.0     0.625491    -0.000493     0.527621  Biso 1.000000     H
    H   1.0     0.471456     0.471478     0.097484  Biso 1.000000     H
    H   1.0     0.527651     0.625440    -0.000378  Biso 1.000000     H
    H   1.0     0.374429     0.374424     0.902723  Biso 1.000000     H
    H   1.0     0.625514     0.527645    -0.000437  Biso 1.000000     H
    H   1.0    -0.000414     0.625450     0.527674  Biso 1.000000     H
    H   1.0     0.902726     0.374414     0.374456  Biso 1.000000     H
    H   1.0    -0.000473     0.527649     0.625425  Biso 1.000000     H
    H   1.0     0.097543     0.471553     0.471528  Biso 1.000000     H
    C   1.0     0.416602     0.682925     0.473411  Biso 1.000000     C
    C   1.0     0.209047     0.943256     0.526583  Biso 1.000000     C
    C   1.0     0.790238     0.316456     0.733387  Biso 1.000000     C
    C   1.0     0.583384     0.056753     0.265829  Biso 1.000000     C
    C   1.0     0.733444     0.790189     0.316461  Biso 1.000000     C
    C   1.0     0.265831     0.583393     0.056808  Biso 1.000000     C
    C   1.0     0.473387     0.416610     0.682910  Biso 1.000000     C
    C   1.0     0.526567     0.209055     0.943207  Biso 1.000000     C
    C   1.0     0.943293     0.526569     0.209092  Biso 1.000000     C
    C   1.0     0.682815     0.473298     0.416496  Biso 1.000000     C
    C   1.0     0.056825     0.265904     0.583416  Biso 1.000000     C
    C   1.0     0.316558     0.733489     0.790286  Biso 1.000000     C
    C   1.0     0.943250     0.209069     0.526550  Biso 1.000000     C
    C   1.0     0.682797     0.416478     0.473297  Biso 1.000000     C
    C   1.0     0.056867     0.583453     0.265917  Biso 1.000000     C
    C   1.0     0.316578     0.790305     0.733484  Biso 1.000000     C
    C   1.0     0.416575     0.473423     0.682917  Biso 1.000000     C
    C   1.0     0.209021     0.526574     0.943228  Biso 1.000000     C
    C   1.0     0.790258     0.733380     0.316462  Biso 1.000000     C
    C   1.0     0.583422     0.265840     0.056787  Biso 1.000000     C
    C   1.0     0.733440     0.316491     0.790212  Biso 1.000000     C
    C   1.0     0.265849     0.056844     0.583428  Biso 1.000000     C
    C   1.0     0.473388     0.682881     0.416573  Biso 1.000000     C
    C   1.0     0.526544     0.943165     0.209020  Biso 1.000000     C
    C   1.0     0.370432     0.754911     0.370419  Biso 1.000000     C
    C   1.0     0.321906     0.812255     0.321886  Biso 1.000000     C
    C   1.0     0.383908    -0.000128     0.629469  Biso 1.000000     C
    C   1.0     0.489701    -0.000240     0.678019  Biso 1.000000     C
    C   1.0     0.615400     0.244909     0.615389  Biso 1.000000     C
    C   1.0     0.509629     0.188015     0.509639  Biso 1.000000     C
    C   1.0     0.629465    -0.000226     0.383865  Biso 1.000000     C
    C   1.0     0.678060    -0.000330     0.489649  Biso 1.000000     C
    C   1.0     0.615421     0.615364     0.244898  Biso 1.000000     C
    C   1.0     0.509655     0.509609     0.188002  Biso 1.000000     C
    C   1.0     0.383871     0.629433    -0.000184  Biso 1.000000     C
    C   1.0     0.489659     0.677984    -0.000304  Biso 1.000000     C
    C   1.0     0.370406     0.370443     0.754914  Biso 1.000000     C
    C   1.0     0.321873     0.321906     0.812252  Biso 1.000000     C
    C   1.0     0.629490     0.383886    -0.000184  Biso 1.000000     C
    C   1.0     0.678080     0.489671    -0.000288  Biso 1.000000     C
    C   1.0    -0.000153     0.629466     0.383933  Biso 1.000000     C
    C   1.0    -0.000289     0.678015     0.489705  Biso 1.000000     C
    C   1.0     0.754865     0.370355     0.370374  Biso 1.000000     C
    C   1.0     0.812254     0.321860     0.321884  Biso 1.000000     C
    C   1.0    -0.000208     0.383908     0.629437  Biso 1.000000     C
    C   1.0    -0.000346     0.489678     0.677988  Biso 1.000000     C
    C   1.0     0.244971     0.615475     0.615455  Biso 1.000000     C
    C   1.0     0.188067     0.509718     0.509695  Biso 1.000000     C
    N   1.0     0.351283     0.728121     0.443819  Biso 1.000000     N
    N   1.0     0.283755     0.907421     0.556094  Biso 1.000000     N
    N   1.0     0.715541     0.271530     0.622969  Biso 1.000000     N
    N   1.0     0.648677     0.092330     0.376252  Biso 1.000000     N
    N   1.0     0.623018     0.715509     0.271549  Biso 1.000000     N
    N   1.0     0.376265     0.648653     0.092376  Biso 1.000000     N
    N   1.0     0.443782     0.351274     0.728083  Biso 1.000000     N
    N   1.0     0.556090     0.283755     0.907372  Biso 1.000000     N
    N   1.0     0.907425     0.556061     0.283771  Biso 1.000000     N
    N   1.0     0.728031     0.443720     0.351194  Biso 1.000000     N
    N   1.0     0.092372     0.376322     0.648688  Biso 1.000000     N
    N   1.0     0.271623     0.623068     0.715598  Biso 1.000000     N
    N   1.0     0.907375     0.283739     0.556048  Biso 1.000000     N
    N   1.0     0.728002     0.351164     0.443720  Biso 1.000000     N
    N   1.0     0.092422     0.648730     0.376336  Biso 1.000000     N
    N   1.0     0.271655     0.715626     0.623062  Biso 1.000000     N
    N   1.0     0.351240     0.443821     0.728096  Biso 1.000000     N
    N   1.0     0.283717     0.556084     0.907381  Biso 1.000000     N
    N   1.0     0.715572     0.622961     0.271549  Biso 1.000000     N
    N   1.0     0.648721     0.376263     0.092369  Biso 1.000000     N
    N   1.0     0.623013     0.271592     0.715543  Biso 1.000000     N
    N   1.0     0.376285     0.092424     0.648697  Biso 1.000000     N
    N   1.0     0.443782     0.728046     0.351229  Biso 1.000000     N
    N   1.0     0.556075     0.907324     0.283713  Biso 1.000000     N
   Zn   1.0     0.249733     0.749968     0.499796  Biso 1.000000    Zn
   Zn   1.0     0.749868     0.249627     0.499694  Biso 1.000000    Zn
   Zn   1.0     0.499744     0.749847     0.249664  Biso 1.000000    Zn
   Zn   1.0     0.499751     0.249724     0.749904  Biso 1.000000    Zn
   Zn   1.0     0.749927     0.499702     0.249674  Biso 1.000000    Zn
   Zn   1.0     0.249671     0.499788     0.749917  Biso 1.000000    Zn
