#======================================================================

# CRYSTAL DATA

#----------------------------------------------------------------------

data_VESTA_phase_1


_pd_phase_name                         MOF
_cell_length_a                         14.78400
_cell_length_b                         14.78400
_cell_length_c                         14.78400
_cell_angle_alpha                      109.37600
_cell_angle_beta                       109.29000
_cell_angle_gamma                      109.29100
_symmetry_space_group_name_H-M         "P 1"
_symmetry_Int_Tables_number            1

loop_
_symmetry_equiv_pos_as_xyz
   "x, y, z"

loop_
   _atom_site_label
   _atom_site_occupancy
   _atom_site_fract_x
   _atom_site_fract_y
   _atom_site_fract_z
   _atom_site_adp_type
   _atom_site_B_iso_or_equiv
   _atom_site_type_symbol
    H   1.0     0.415609     0.653642     0.530665  Biso 1.000000     H
    H   1.0     0.314689     0.793612     0.240770  Biso 1.000000     H
    H   1.0     0.122500     0.887942     0.470432  Biso 1.000000     H
    H   1.0     0.549135     0.071113     0.758799  Biso 1.000000     H
    H   1.0     0.876304     0.342186     0.761212  Biso 1.000000     H
    H   1.0     0.449462     0.208548     0.523382  Biso 1.000000     H
    H   1.0     0.586023     0.116837     0.237748  Biso 1.000000     H
    H   1.0     0.685370     0.924120     0.475027  Biso 1.000000     H
    H   1.0     0.761046     0.876279     0.342035  Biso 1.000000     H
    H   1.0     0.523477     0.449465     0.208948  Biso 1.000000     H
    H   1.0     0.237863     0.585952     0.116960  Biso 1.000000     H
    H   1.0     0.474935     0.685635     0.924118  Biso 1.000000     H
    H   1.0     0.530942     0.415649     0.653927  Biso 1.000000     H
    H   1.0     0.240427     0.314347     0.793231  Biso 1.000000     H
    H   1.0     0.470289     0.122430     0.887822  Biso 1.000000     H
    H   1.0     0.759176     0.549065     0.071223  Biso 1.000000     H
    H   1.0     0.887954     0.470106     0.122426  Biso 1.000000     H
    H   1.0     0.071148     0.759020     0.549257  Biso 1.000000     H
    H   1.0     0.654045     0.531048     0.415961  Biso 1.000000     H
    H   1.0     0.793555     0.240535     0.314459  Biso 1.000000     H
    H   1.0     0.116826     0.237674     0.585707  Biso 1.000000     H
    H   1.0     0.924219     0.475168     0.685669  Biso 1.000000     H
    H   1.0     0.341935     0.761184     0.876317  Biso 1.000000     H
    H   1.0     0.208683     0.523174     0.449307  Biso 1.000000     H
    H   1.0     0.887957     0.122417     0.470144  Biso 1.000000     H
    H   1.0     0.071158     0.549245     0.759076  Biso 1.000000     H
    H   1.0     0.654053     0.415954     0.531078  Biso 1.000000     H
    H   1.0     0.793547     0.314421     0.240556  Biso 1.000000     H
    H   1.0     0.116824     0.585662     0.237689  Biso 1.000000     H
    H   1.0     0.924210     0.685629     0.475174  Biso 1.000000     H
    H   1.0     0.341926     0.876287     0.761192  Biso 1.000000     H
    H   1.0     0.208699     0.449276     0.523223  Biso 1.000000     H
    H   1.0     0.415647     0.530685     0.653727  Biso 1.000000     H
    H   1.0     0.314708     0.240762     0.793666  Biso 1.000000     H
    H   1.0     0.122478     0.470398     0.887965  Biso 1.000000     H
    H   1.0     0.549138     0.758777     0.071139  Biso 1.000000     H
    H   1.0     0.876289     0.761174     0.342197  Biso 1.000000     H
    H   1.0     0.449439     0.523317     0.208525  Biso 1.000000     H
    H   1.0     0.586018     0.237698     0.116815  Biso 1.000000     H
    H   1.0     0.685393     0.475025     0.924201  Biso 1.000000     H
    H   1.0     0.761070     0.342029     0.876327  Biso 1.000000     H
    H   1.0     0.523493     0.208959     0.449522  Biso 1.000000     H
    H   1.0     0.237890     0.116984     0.586008  Biso 1.000000     H
    H   1.0     0.474933     0.924045     0.685641  Biso 1.000000     H
    H   1.0     0.530896     0.653836     0.415619  Biso 1.000000     H
    H   1.0     0.240415     0.793182     0.314363  Biso 1.000000     H
    H   1.0     0.470286     0.887797     0.122462  Biso 1.000000     H
    H   1.0     0.759147     0.071189     0.549080  Biso 1.000000     H
    H   1.0     0.374462     0.904485     0.375009  Biso 1.000000     H
    H   1.0     0.526244    -0.002781     0.624281  Biso 1.000000     H
    H   1.0     0.472461     0.096801     0.471921  Biso 1.000000     H
    H   1.0     0.624806    -0.001724     0.526759  Biso 1.000000     H
    H   1.0     0.472454     0.471862     0.096788  Biso 1.000000     H
    H   1.0     0.526244     0.624262    -0.002773  Biso 1.000000     H
    H   1.0     0.374470     0.374998     0.904539  Biso 1.000000     H
    H   1.0     0.624842     0.526757    -0.001684  Biso 1.000000     H
    H   1.0    -0.002259     0.624602     0.526596  Biso 1.000000     H
    H   1.0     0.904599     0.374660     0.374679  Biso 1.000000     H
    H   1.0    -0.002227     0.526601     0.624663  Biso 1.000000     H
    H   1.0     0.096791     0.472008     0.472060  Biso 1.000000     H
    C   1.0     0.415067     0.682347     0.471949  Biso 1.000000     C
    C   1.0     0.209402     0.944956     0.528944  Biso 1.000000     C
    C   1.0     0.789408     0.314645     0.732507  Biso 1.000000     C
    C   1.0     0.586140     0.058159     0.266369  Biso 1.000000     C
    C   1.0     0.732412     0.789371     0.314563  Biso 1.000000     C
    C   1.0     0.266423     0.586080     0.058207  Biso 1.000000     C
    C   1.0     0.472120     0.415089     0.682535  Biso 1.000000     C
    C   1.0     0.528878     0.209345     0.944927  Biso 1.000000     C
    C   1.0     0.944989     0.528698     0.209356  Biso 1.000000     C
    C   1.0     0.682685     0.472240     0.415342  Biso 1.000000     C
    C   1.0     0.058148     0.266323     0.585919  Biso 1.000000     C
    C   1.0     0.314451     0.732455     0.789392  Biso 1.000000     C
    C   1.0     0.944993     0.209347     0.528738  Biso 1.000000     C
    C   1.0     0.682686     0.415326     0.472263  Biso 1.000000     C
    C   1.0     0.058143     0.585872     0.266336  Biso 1.000000     C
    C   1.0     0.314448     0.789363     0.732473  Biso 1.000000     C
    C   1.0     0.415102     0.471966     0.682428  Biso 1.000000     C
    C   1.0     0.209378     0.528910     0.944986  Biso 1.000000     C
    C   1.0     0.789391     0.732463     0.314648  Biso 1.000000     C
    C   1.0     0.586144     0.266330     0.058146  Biso 1.000000     C
    C   1.0     0.732433     0.314559     0.789419  Biso 1.000000     C
    C   1.0     0.266442     0.058223     0.586127  Biso 1.000000     C
    C   1.0     0.472083     0.682454     0.415071  Biso 1.000000     C
    C   1.0     0.528878     0.944893     0.209377  Biso 1.000000     C
    C   1.0     0.370052     0.756028     0.370104  Biso 1.000000     C
    C   1.0     0.322140     0.814361     0.322297  Biso 1.000000     C
    C   1.0     0.383553    -0.000589     0.630146  Biso 1.000000     C
    C   1.0     0.488717    -0.002121     0.677463  Biso 1.000000     C
    C   1.0     0.615163     0.243693     0.615098  Biso 1.000000     C
    C   1.0     0.509892     0.187083     0.509729  Biso 1.000000     C
    C   1.0     0.630226    -0.000442     0.383611  Biso 1.000000     C
    C   1.0     0.677629    -0.001782     0.488871  Biso 1.000000     C
    C   1.0     0.615147     0.615046     0.243699  Biso 1.000000     C
    C   1.0     0.509876     0.509670     0.187068  Biso 1.000000     C
    C   1.0     0.383550     0.630122    -0.000585  Biso 1.000000     C
    C   1.0     0.488721     0.677447    -0.002105  Biso 1.000000     C
    C   1.0     0.370086     0.370115     0.756104  Biso 1.000000     C
    C   1.0     0.322155     0.322287     0.814415  Biso 1.000000     C
    C   1.0     0.630247     0.383595    -0.000428  Biso 1.000000     C
    C   1.0     0.677660     0.488864    -0.001752  Biso 1.000000     C
    C   1.0    -0.000512     0.630117     0.383638  Biso 1.000000     C
    C   1.0    -0.001933     0.677592     0.488923  Biso 1.000000     C
    C   1.0     0.756243     0.370154     0.370178  Biso 1.000000     C
    C   1.0     0.814519     0.322173     0.322199  Biso 1.000000     C
    C   1.0    -0.000501     0.383632     0.630153  Biso 1.000000     C
    C   1.0    -0.001918     0.488917     0.677643  Biso 1.000000     C
    C   1.0     0.243589     0.614997     0.615030  Biso 1.000000     C
    C   1.0     0.187027     0.509608     0.509649  Biso 1.000000     C
    N   1.0     0.350370     0.728550     0.443139  Biso 1.000000     N
    N   1.0     0.283500     0.907969     0.557160  Biso 1.000000     N
    N   1.0     0.715202     0.270191     0.622411  Biso 1.000000     N
    N   1.0     0.650441     0.092501     0.376391  Biso 1.000000     N
    N   1.0     0.622361     0.715070     0.270044  Biso 1.000000     N
    N   1.0     0.376405     0.650287     0.092431  Biso 1.000000     N
    N   1.0     0.443265     0.350490     0.728785  Biso 1.000000     N
    N   1.0     0.557126     0.283545     0.908088  Biso 1.000000     N
    N   1.0     0.908101     0.557043     0.283579  Biso 1.000000     N
    N   1.0     0.728870     0.443295     0.350604  Biso 1.000000     N
    N   1.0     0.092422     0.376380     0.650252  Biso 1.000000     N
    N   1.0     0.270011     0.622331     0.715077  Biso 1.000000     N
    N   1.0     0.908110     0.283571     0.557091  Biso 1.000000     N
    N   1.0     0.728885     0.350597     0.443333  Biso 1.000000     N
    N   1.0     0.092413     0.650204     0.376392  Biso 1.000000     N
    N   1.0     0.270004     0.715039     0.622351  Biso 1.000000     N
    N   1.0     0.350387     0.443135     0.728609  Biso 1.000000     N
    N   1.0     0.283489     0.557133     0.908012  Biso 1.000000     N
    N   1.0     0.715186     0.622364     0.270190  Biso 1.000000     N
    N   1.0     0.650445     0.376359     0.092504  Biso 1.000000     N
    N   1.0     0.622384     0.270056     0.715126  Biso 1.000000     N
    N   1.0     0.376421     0.092435     0.650324  Biso 1.000000     N
    N   1.0     0.443233     0.728712     0.350478  Biso 1.000000     N
    N   1.0     0.557113     0.908037     0.283563  Biso 1.000000     N
   Zn   1.0     0.248767     0.750376     0.499596  Biso 1.000000    Zn
   Zn   1.0     0.750643     0.248957     0.499644  Biso 1.000000    Zn
   Zn   1.0     0.499616     0.750490     0.248847  Biso 1.000000    Zn
   Zn   1.0     0.499641     0.248850     0.750549  Biso 1.000000    Zn
   Zn   1.0     0.750634     0.499602     0.248963  Biso 1.000000    Zn
   Zn   1.0     0.248777     0.499585     0.750427  Biso 1.000000    Zn
