#======================================================================

# CRYSTAL DATA

#----------------------------------------------------------------------

data_VESTA_phase_1


_pd_phase_name                         MOF
_cell_length_a                         14.80300
_cell_length_b                         14.80300
_cell_length_c                         14.80300
_cell_angle_alpha                      109.47100
_cell_angle_beta                       109.47100
_cell_angle_gamma                      109.47100
_symmetry_space_group_name_H-M         "P 1"
_symmetry_Int_Tables_number            1

loop_
_symmetry_equiv_pos_as_xyz
   "x, y, z"

loop_
   _atom_site_label
   _atom_site_occupancy
   _atom_site_fract_x
   _atom_site_fract_y
   _atom_site_fract_z
   _atom_site_adp_type
   _atom_site_B_iso_or_equiv
   _atom_site_type_symbol
    H   1.0     0.418999     0.656417     0.533900  Biso 1.000000     H
    H   1.0     0.312522     0.788704     0.238775  Biso 1.000000     H
    H   1.0     0.122530     0.885138     0.466113  Biso 1.000000     H
    H   1.0     0.549930     0.073750     0.761250  Biso 1.000000     H
    H   1.0     0.877510     0.343553     0.762592  Biso 1.000000     H
    H   1.0     0.450103     0.211323     0.523840  Biso 1.000000     H
    H   1.0     0.580947     0.114903     0.237418  Biso 1.000000     H
    H   1.0     0.687499     0.926271     0.476172  Biso 1.000000     H
    H   1.0     0.762585     0.877486     0.343480  Biso 1.000000     H
    H   1.0     0.523844     0.450104     0.211334  Biso 1.000000     H
    H   1.0     0.237416     0.580893     0.114878  Biso 1.000000     H
    H   1.0     0.476183     0.687515     0.926266  Biso 1.000000     H
    H   1.0     0.533970     0.419063     0.656473  Biso 1.000000     H
    H   1.0     0.238783     0.312521     0.788683  Biso 1.000000     H
    H   1.0     0.466027     0.122554     0.885153  Biso 1.000000     H
    H   1.0     0.761266     0.549920     0.073746  Biso 1.000000     H
    H   1.0     0.885139     0.466042     0.122540  Biso 1.000000     H
    H   1.0     0.073751     0.761266     0.549925  Biso 1.000000     H
    H   1.0     0.656587     0.534040     0.419157  Biso 1.000000     H
    H   1.0     0.788690     0.238770     0.312503  Biso 1.000000     H
    H   1.0     0.114899     0.237416     0.580905  Biso 1.000000     H
    H   1.0     0.926283     0.476168     0.687511  Biso 1.000000     H
    H   1.0     0.343516     0.762593     0.877483  Biso 1.000000     H
    H   1.0     0.211343     0.523850     0.450091  Biso 1.000000     H
    H   1.0     0.885134     0.122524     0.466069  Biso 1.000000     H
    H   1.0     0.073771     0.549920     0.761255  Biso 1.000000     H
    H   1.0     0.656427     0.419010     0.533909  Biso 1.000000     H
    H   1.0     0.788688     0.312532     0.238762  Biso 1.000000     H
    H   1.0     0.114905     0.580969     0.237429  Biso 1.000000     H
    H   1.0     0.926263     0.687509     0.476176  Biso 1.000000     H
    H   1.0     0.343523     0.877490     0.762599  Biso 1.000000     H
    H   1.0     0.211336     0.450098     0.523842  Biso 1.000000     H
    H   1.0     0.419110     0.533984     0.656511  Biso 1.000000     H
    H   1.0     0.312535     0.238769     0.788688  Biso 1.000000     H
    H   1.0     0.122525     0.466095     0.885117  Biso 1.000000     H
    H   1.0     0.549918     0.761248     0.073749  Biso 1.000000     H
    H   1.0     0.877489     0.762610     0.343545  Biso 1.000000     H
    H   1.0     0.450091     0.523853     0.211325  Biso 1.000000     H
    H   1.0     0.581008     0.237424     0.114913  Biso 1.000000     H
    H   1.0     0.687517     0.476173     0.926263  Biso 1.000000     H
    H   1.0     0.762616     0.343476     0.877476  Biso 1.000000     H
    H   1.0     0.523856     0.211333     0.450091  Biso 1.000000     H
    H   1.0     0.237440     0.114899     0.580888  Biso 1.000000     H
    H   1.0     0.476176     0.926266     0.687509  Biso 1.000000     H
    H   1.0     0.534040     0.656599     0.419161  Biso 1.000000     H
    H   1.0     0.238756     0.788689     0.312512  Biso 1.000000     H
    H   1.0     0.466048     0.885140     0.122527  Biso 1.000000     H
    H   1.0     0.761250     0.073755     0.549918  Biso 1.000000     H
    H   1.0     0.372664     0.901347     0.372683  Biso 1.000000     H
    H   1.0     0.528655    -0.000013     0.627337  Biso 1.000000     H
    H   1.0     0.471384     0.098687     0.471361  Biso 1.000000     H
    H   1.0     0.627336     0.000015     0.528653  Biso 1.000000     H
    H   1.0     0.471351     0.471356     0.098678  Biso 1.000000     H
    H   1.0     0.528657     0.627339    -0.000006  Biso 1.000000     H
    H   1.0     0.372690     0.372678     0.901337  Biso 1.000000     H
    H   1.0     0.627357     0.528666     0.000002  Biso 1.000000     H
    H   1.0     0.000007     0.627351     0.528659  Biso 1.000000     H
    H   1.0     0.901342     0.372681     0.372665  Biso 1.000000     H
    H   1.0     0.000014     0.528664     0.627349  Biso 1.000000     H
    H   1.0     0.098693     0.471369     0.471353  Biso 1.000000     H
    C   1.0     0.417488     0.683869     0.474305  Biso 1.000000     C
    C   1.0     0.209574     0.943219     0.525716  Biso 1.000000     C
    C   1.0     0.790472     0.316143     0.733639  Biso 1.000000     C
    C   1.0     0.582500     0.056818     0.266369  Biso 1.000000     C
    C   1.0     0.733635     0.790453     0.316102  Biso 1.000000     C
    C   1.0     0.266368     0.582470     0.056798  Biso 1.000000     C
    C   1.0     0.474342     0.417517     0.683884  Biso 1.000000     C
    C   1.0     0.525686     0.209586     0.943228  Biso 1.000000     C
    C   1.0     0.943218     0.525694     0.209573  Biso 1.000000     C
    C   1.0     0.683941     0.474366     0.417562  Biso 1.000000     C
    C   1.0     0.056820     0.266370     0.582477  Biso 1.000000     C
    C   1.0     0.316124     0.733643     0.790448  Biso 1.000000     C
    C   1.0     0.943218     0.209563     0.525689  Biso 1.000000     C
    C   1.0     0.683874     0.417498     0.474311  Biso 1.000000     C
    C   1.0     0.056819     0.582518     0.266379  Biso 1.000000     C
    C   1.0     0.316130     0.790455     0.733644  Biso 1.000000     C
    C   1.0     0.417551     0.474343     0.683905  Biso 1.000000     C
    C   1.0     0.209566     0.525712     0.943200  Biso 1.000000     C
    C   1.0     0.790448     0.733650     0.316125  Biso 1.000000     C
    C   1.0     0.582532     0.266380     0.056826  Biso 1.000000     C
    C   1.0     0.733662     0.316107     0.790446  Biso 1.000000     C
    C   1.0     0.266386     0.056817     0.582479  Biso 1.000000     C
    C   1.0     0.474364     0.683951     0.417565  Biso 1.000000     C
    C   1.0     0.525693     0.943220     0.209562  Biso 1.000000     C
    C   1.0     0.370142     0.754456     0.370150  Biso 1.000000     C
    C   1.0     0.320669     0.810727     0.320679  Biso 1.000000     C
    C   1.0     0.384305     0.000004     0.629879  Biso 1.000000     C
    C   1.0     0.490044    -0.000004     0.679345  Biso 1.000000     C
    C   1.0     0.615736     0.245590     0.615719  Biso 1.000000     C
    C   1.0     0.509991     0.189306     0.509974  Biso 1.000000     C
    C   1.0     0.629880     0.000004     0.384292  Biso 1.000000     C
    C   1.0     0.679341     0.000007     0.490038  Biso 1.000000     C
    C   1.0     0.615712     0.615721     0.245564  Biso 1.000000     C
    C   1.0     0.509971     0.509979     0.189298  Biso 1.000000     C
    C   1.0     0.384296     0.629871    -0.000007  Biso 1.000000     C
    C   1.0     0.490040     0.679342    -0.000005  Biso 1.000000     C
    C   1.0     0.370170     0.370152     0.754450  Biso 1.000000     C
    C   1.0     0.320692     0.320678     0.810717  Biso 1.000000     C
    C   1.0     0.629879     0.384306     0.000007  Biso 1.000000     C
    C   1.0     0.679355     0.490043    -0.000000  Biso 1.000000     C
    C   1.0     0.000004     0.629892     0.384303  Biso 1.000000     C
    C   1.0     0.000002     0.679357     0.490045  Biso 1.000000     C
    C   1.0     0.754456     0.370154     0.370148  Biso 1.000000     C
    C   1.0     0.810721     0.320681     0.320668  Biso 1.000000     C
    C   1.0     0.000017     0.384301     0.629872  Biso 1.000000     C
    C   1.0     0.000017     0.490043     0.679349  Biso 1.000000     C
    C   1.0     0.245586     0.615722     0.615715  Biso 1.000000     C
    C   1.0     0.189313     0.509981     0.509971  Biso 1.000000     C
    N   1.0     0.351377     0.728093     0.443915  Biso 1.000000     N
    N   1.0     0.284184     0.907494     0.556107  Biso 1.000000     N
    N   1.0     0.715855     0.271916     0.623306  Biso 1.000000     N
    N   1.0     0.648601     0.092534     0.376704  Biso 1.000000     N
    N   1.0     0.623297     0.715836     0.271856  Biso 1.000000     N
    N   1.0     0.376708     0.648564     0.092522  Biso 1.000000     N
    N   1.0     0.443965     0.351419     0.728124  Biso 1.000000     N
    N   1.0     0.556054     0.284197     0.907498  Biso 1.000000     N
    N   1.0     0.907494     0.556072     0.284185  Biso 1.000000     N
    N   1.0     0.728195     0.444005     0.351474  Biso 1.000000     N
    N   1.0     0.092544     0.376710     0.648571  Biso 1.000000     N
    N   1.0     0.271893     0.623309     0.715831  Biso 1.000000     N
    N   1.0     0.907500     0.284180     0.556077  Biso 1.000000     N
    N   1.0     0.728097     0.351388     0.443915  Biso 1.000000     N
    N   1.0     0.092533     0.648621     0.376712  Biso 1.000000     N
    N   1.0     0.271893     0.715842     0.623307  Biso 1.000000     N
    N   1.0     0.351455     0.443968     0.728148  Biso 1.000000     N
    N   1.0     0.284183     0.556093     0.907479  Biso 1.000000     N
    N   1.0     0.715835     0.623313     0.271895  Biso 1.000000     N
    N   1.0     0.648636     0.376715     0.092541  Biso 1.000000     N
    N   1.0     0.623323     0.271865     0.715834  Biso 1.000000     N
    N   1.0     0.376725     0.092534     0.648563  Biso 1.000000     N
    N   1.0     0.444001     0.728207     0.351479  Biso 1.000000     N
    N   1.0     0.556065     0.907494     0.284175  Biso 1.000000     N
   Zn   1.0     0.249999     0.750018     0.500013  Biso 1.000000    Zn
   Zn   1.0     0.750024     0.250005     0.500001  Biso 1.000000    Zn
   Zn   1.0     0.500000     0.750018     0.250000  Biso 1.000000    Zn
   Zn   1.0     0.500028     0.250006     0.750016  Biso 1.000000    Zn
   Zn   1.0     0.750026     0.500025     0.250018  Biso 1.000000    Zn
   Zn   1.0     0.250020     0.500009     0.750004  Biso 1.000000    Zn
