#======================================================================

# CRYSTAL DATA

#----------------------------------------------------------------------

data_VESTA_phase_1


_pd_phase_name                         MOF
_cell_length_a                         14.27300
_cell_length_b                         15.94000
_cell_length_c                         19.73000
_cell_angle_alpha                      110.74300
_cell_angle_beta                       89.83300
_cell_angle_gamma                      116.78400
_symmetry_space_group_name_H-M         "P 1"
_symmetry_Int_Tables_number            1

loop_
_symmetry_equiv_pos_as_xyz
   "x, y, z"

loop_
   _atom_site_label
   _atom_site_occupancy
   _atom_site_fract_x
   _atom_site_fract_y
   _atom_site_fract_z
   _atom_site_adp_type
   _atom_site_B_iso_or_equiv
   _atom_site_type_symbol
    H   1.0     0.523907     0.779376     0.719793  Biso 1.000000     H
    H   1.0     0.399957     0.854082     0.741380  Biso 1.000000     H
    H   1.0     0.202679     0.736160     0.718377  Biso 1.000000     H
    H   1.0     0.160453     0.249183     0.707213  Biso 1.000000     H
    H   1.0     0.167527     0.154412     0.577318  Biso 1.000000     H
    H   1.0     0.226246     0.247850     0.493469  Biso 1.000000     H
    H   1.0     0.156097     0.632939     0.041382  Biso 1.000000     H
    H   1.0     0.246789     0.823329     0.088582  Biso 1.000000     H
    H   1.0     0.249160     0.795037     0.862498  Biso 1.000000     H
    H   1.0     0.149830     0.605125     0.823494  Biso 1.000000     H
    H   1.0     0.340508     0.303530     0.180262  Biso 1.000000     H
    H   1.0     0.234798     0.111620     0.135609  Biso 1.000000     H
    H   1.0     0.502163     0.095300     0.040425  Biso 1.000000     H
    H   1.0     0.600006     0.288079     0.093531  Biso 1.000000     H
    H   1.0     0.742845     0.220824     0.780530  Biso 1.000000     H
    H   1.0     0.543914     0.146439     0.759111  Biso 1.000000     H
    H   1.0     0.465424     0.264548     0.782016  Biso 1.000000     H
    H   1.0     0.912707     0.750953     0.792643  Biso 1.000000     H
    H   1.0     0.000000     0.845740     0.922229  Biso 1.000000     H
    H   1.0     0.980499     0.752377     0.006024  Biso 1.000000     H
    H   1.0     0.521986     0.367756     0.458911  Biso 1.000000     H
    H   1.0     0.422281     0.177366     0.411416  Biso 1.000000     H
    H   1.0     0.454776     0.204804     0.637155  Biso 1.000000     H
    H   1.0     0.545357     0.394763     0.676560  Biso 1.000000     H
    H   1.0     0.037361     0.695912     0.319002  Biso 1.000000     H
    H   1.0     0.123538     0.887744     0.363663  Biso 1.000000     H
    H   1.0     0.407136     0.905551     0.459434  Biso 1.000000     H
    H   1.0     0.312250     0.712810     0.406359  Biso 1.000000     H
    H   1.0     0.476115     0.220632     0.280047  Biso 1.000000     H
    H   1.0     0.600056     0.145917     0.258449  Biso 1.000000     H
    H   1.0     0.797334     0.263830     0.281437  Biso 1.000000     H
    H   1.0     0.839534     0.750826     0.292629  Biso 1.000000     H
    H   1.0     0.832467     0.845585     0.422531  Biso 1.000000     H
    H   1.0     0.773787     0.752136     0.506376  Biso 1.000000     H
    H   1.0     0.843917     0.367083     0.958459  Biso 1.000000     H
    H   1.0     0.753243     0.176694     0.911254  Biso 1.000000     H
    H   1.0     0.750873     0.204971     0.137335  Biso 1.000000     H
    H   1.0     0.850179     0.394887     0.176344  Biso 1.000000     H
    H   1.0     0.659509     0.696484     0.819584  Biso 1.000000     H
    H   1.0     0.765215     0.888393     0.864217  Biso 1.000000     H
    H   1.0     0.497866     0.904728     0.959419  Biso 1.000000     H
    H   1.0     0.400027     0.711948     0.906332  Biso 1.000000     H
    H   1.0     0.257175     0.779193     0.219327  Biso 1.000000     H
    H   1.0     0.456105     0.853579     0.240753  Biso 1.000000     H
    H   1.0     0.534598     0.735469     0.217824  Biso 1.000000     H
    H   1.0     0.087283     0.249074     0.207198  Biso 1.000000     H
    H   1.0    -0.015211     0.154280     0.077609  Biso 1.000000     H
    H   1.0     0.019520     0.247633     0.993807  Biso 1.000000     H
    H   1.0     0.477998     0.632220     0.540918  Biso 1.000000     H
    H   1.0     0.577680     0.822609     0.588432  Biso 1.000000     H
    H   1.0     0.545200     0.795217     0.362703  Biso 1.000000     H
    H   1.0     0.454647     0.605258     0.323279  Biso 1.000000     H
    H   1.0     0.962647     0.304086     0.680841  Biso 1.000000     H
    H   1.0     0.876457     0.112255     0.636176  Biso 1.000000     H
    H   1.0     0.592857     0.094476     0.540436  Biso 1.000000     H
    H   1.0     0.687758     0.287216     0.593515  Biso 1.000000     H
    C   1.0     0.475399     0.584090     0.675938  Biso 1.000000     C
    C   1.0     0.398009     0.625046     0.689284  Biso 1.000000     C
    C   1.0     0.437934     0.730444     0.711592  Biso 1.000000     C
    C   1.0     0.368758     0.771792     0.723390  Biso 1.000000     C
    C   1.0     0.259335     0.706783     0.711076  Biso 1.000000     C
    C   1.0     0.217731     0.600695     0.687303  Biso 1.000000     C
    C   1.0     0.287242     0.558032     0.676192  Biso 1.000000     C
    C   1.0     0.098933     0.535206     0.673439  Biso 1.000000     C
    C   1.0     0.213380     0.442486     0.775194  Biso 1.000000     C
    C   1.0     0.217180     0.392293     0.695694  Biso 1.000000     C
    C   1.0     0.185875     0.287875     0.669474  Biso 1.000000     C
    C   1.0     0.189740     0.235251     0.597070  Biso 1.000000     C
    C   1.0     0.222297     0.286829     0.550316  Biso 1.000000     C
    C   1.0     0.250787     0.390695     0.574589  Biso 1.000000     C
    C   1.0     0.249353     0.445334     0.648472  Biso 1.000000     C
    C   1.0     0.280932     0.440144     0.519405  Biso 1.000000     C
    C   1.0     0.176907     0.671314     0.003447  Biso 1.000000     C
    C   1.0     0.227363     0.777291     0.029598  Biso 1.000000     C
    C   1.0     0.255292     0.823456     0.978833  Biso 1.000000     C
    C   1.0     0.228730     0.761546     0.903373  Biso 1.000000     C
    C   1.0     0.174979     0.656105     0.881482  Biso 1.000000     C
    C   1.0     0.373107     0.254317     0.149721  Biso 1.000000     C
    C   1.0     0.314934     0.148573     0.124509  Biso 1.000000     C
    C   1.0     0.359915     0.089568     0.083132  Biso 1.000000     C
    C   1.0     0.463986     0.139024     0.070698  Biso 1.000000     C
    C   1.0     0.518197     0.245264     0.099859  Biso 1.000000     C
    C   1.0     0.890850     0.416088     0.824150  Biso 1.000000     C
    C   1.0     0.772323     0.375239     0.810953  Biso 1.000000     C
    C   1.0     0.706206     0.269878     0.788747  Biso 1.000000     C
    C   1.0     0.595522     0.228699     0.777028  Biso 1.000000     C
    C   1.0     0.551574     0.293816     0.789303  Biso 1.000000     C
    C   1.0     0.616689     0.399879     0.812998  Biso 1.000000     C
    C   1.0     0.729037     0.442361     0.824050  Biso 1.000000     C
    C   1.0     0.563823     0.465500     0.826822  Biso 1.000000     C
    C   1.0     0.771380     0.557545     0.724963  Biso 1.000000     C
    C   1.0     0.825638     0.607920     0.804338  Biso 1.000000     C
    C   1.0     0.899294     0.712301     0.830383  Biso 1.000000     C
    C   1.0     0.956181     0.764925     0.902613  Biso 1.000000     C
    C   1.0     0.937120     0.713382     0.949355  Biso 1.000000     C
    C   1.0     0.861140     0.609576     0.925274  Biso 1.000000     C
    C   1.0     0.804542     0.554981     0.851599  Biso 1.000000     C
    C   1.0     0.841815     0.560156     0.980442  Biso 1.000000     C
    C   1.0     0.504804     0.329224     0.496727  Biso 1.000000     C
    C   1.0     0.449282     0.223218     0.470398  Biso 1.000000     C
    C   1.0     0.431666     0.176793     0.520964  Biso 1.000000     C
    C   1.0     0.467424     0.238493     0.596435  Biso 1.000000     C
    C   1.0     0.519102     0.343963     0.618534  Biso 1.000000     C
    C   1.0     0.119152     0.745414     0.349680  Biso 1.000000     C
    C   1.0     0.166710     0.851128     0.374883  Biso 1.000000     C
    C   1.0     0.270640     0.910547     0.416434  Biso 1.000000     C
    C   1.0     0.325259     0.861519     0.429014  Biso 1.000000     C
    C   1.0     0.273248     0.755282     0.399870  Biso 1.000000     C
    C   1.0     0.524634     0.415924     0.323899  Biso 1.000000     C
    C   1.0     0.602017     0.374960     0.310547  Biso 1.000000     C
    C   1.0     0.562088     0.269560     0.288241  Biso 1.000000     C
    C   1.0     0.631257     0.228206     0.276435  Biso 1.000000     C
    C   1.0     0.740681     0.293210     0.288740  Biso 1.000000     C
    C   1.0     0.782290     0.399298     0.312514  Biso 1.000000     C
    C   1.0     0.712784     0.441967     0.323630  Biso 1.000000     C
    C   1.0     0.901088     0.464783     0.326384  Biso 1.000000     C
    C   1.0     0.786648     0.557521     0.224653  Biso 1.000000     C
    C   1.0     0.782834     0.607715     0.304145  Biso 1.000000     C
    C   1.0     0.814126     0.712130     0.330367  Biso 1.000000     C
    C   1.0     0.810265     0.764748     0.402774  Biso 1.000000     C
    C   1.0     0.777728     0.713164     0.449526  Biso 1.000000     C
    C   1.0     0.749254     0.609302     0.425245  Biso 1.000000     C
    C   1.0     0.750675     0.554667     0.351361  Biso 1.000000     C
    C   1.0     0.719129     0.559841     0.480420  Biso 1.000000     C
    C   1.0     0.823112     0.328706     0.996393  Biso 1.000000     C
    C   1.0     0.772666     0.222730     0.970238  Biso 1.000000     C
    C   1.0     0.744740     0.176561     0.021001  Biso 1.000000     C
    C   1.0     0.771299     0.238466     0.096462  Biso 1.000000     C
    C   1.0     0.825038     0.343908     0.118356  Biso 1.000000     C
    C   1.0     0.626913     0.745701     0.850123  Biso 1.000000     C
    C   1.0     0.685083     0.851443     0.875324  Biso 1.000000     C
    C   1.0     0.640105     0.910451     0.916700  Biso 1.000000     C
    C   1.0     0.536040     0.861001     0.929144  Biso 1.000000     C
    C   1.0     0.481830     0.754762     0.899994  Biso 1.000000     C
    C   1.0     0.109169     0.583918     0.175685  Biso 1.000000     C
    C   1.0     0.227698     0.624773     0.188879  Biso 1.000000     C
    C   1.0     0.293815     0.730137     0.211101  Biso 1.000000     C
    C   1.0     0.404499     0.771316     0.222823  Biso 1.000000     C
    C   1.0     0.448447     0.706198     0.210534  Biso 1.000000     C
    C   1.0     0.383333     0.600134     0.186829  Biso 1.000000     C
    C   1.0     0.270985     0.557652     0.175778  Biso 1.000000     C
    C   1.0     0.436193     0.534507     0.173001  Biso 1.000000     C
    C   1.0     0.228631     0.442480     0.274868  Biso 1.000000     C
    C   1.0     0.174367     0.392101     0.195495  Biso 1.000000     C
    C   1.0     0.100705     0.287723     0.169456  Biso 1.000000     C
    C   1.0     0.043822     0.235094     0.097225  Biso 1.000000     C
    C   1.0     0.062891     0.286631     0.050478  Biso 1.000000     C
    C   1.0     0.138878     0.390434     0.074556  Biso 1.000000     C
    C   1.0     0.195472     0.445034     0.148231  Biso 1.000000     C
    C   1.0     0.158198     0.439850     0.019387  Biso 1.000000     C
    C   1.0     0.495181     0.670761     0.503108  Biso 1.000000     C
    C   1.0     0.550690     0.776769     0.529447  Biso 1.000000     C
    C   1.0     0.568308     0.823209     0.478891  Biso 1.000000     C
    C   1.0     0.532556     0.761518     0.403418  Biso 1.000000     C
    C   1.0     0.480893     0.656046     0.381308  Biso 1.000000     C
    C   1.0     0.880852     0.254591     0.650170  Biso 1.000000     C
    C   1.0     0.833285     0.148875     0.624964  Biso 1.000000     C
    C   1.0     0.729348     0.089462     0.583423  Biso 1.000000     C
    C   1.0     0.674737     0.138500     0.570851  Biso 1.000000     C
    C   1.0     0.726757     0.244739     0.599996  Biso 1.000000     C
    N   1.0     0.151733     0.611587     0.930551  Biso 1.000000     N
    N   1.0     0.314129     0.930925    -0.000595  Biso 1.000000     N
    N   1.0     0.296760     0.982086     0.059300  Biso 1.000000     N
    N   1.0     0.473590     0.301948     0.138038  Biso 1.000000     N
    N   1.0     0.539936     0.388726     0.569629  Biso 1.000000     N
    N   1.0     0.383281     0.069346     0.500207  Biso 1.000000     N
    N   1.0     0.314826     0.017978     0.440340  Biso 1.000000     N
    N   1.0     0.171976     0.698195     0.361544  Biso 1.000000     N
    N   1.0     0.848278     0.388429     0.069290  Biso 1.000000     N
    N   1.0     0.685914     0.069093     0.000000  Biso 1.000000     N
    N   1.0     0.703253     0.017931     0.940521  Biso 1.000000     N
    N   1.0     0.526436     0.698075     0.861816  Biso 1.000000     N
    N   1.0     0.460059     0.611267     0.430204  Biso 1.000000     N
    N   1.0     0.616683     0.930660     0.499658  Biso 1.000000     N
    N   1.0     0.685160     0.982027     0.559514  Biso 1.000000     N
    N   1.0     0.828033     0.301821     0.638317  Biso 1.000000     N
    O   1.0     0.536882     0.607687     0.631268  Biso 1.000000     O
    O   1.0     0.478275     0.528671     0.708263  Biso 1.000000     O
    O   1.0     0.297191     0.519236     0.820419  Biso 1.000000     O
    O   1.0     0.123534     0.403023     0.794406  Biso 1.000000     O
    O   1.0     0.042631     0.581724     0.696185  Biso 1.000000     O
    O   1.0     0.056478     0.439536     0.644059  Biso 1.000000     O
    O   1.0     0.281223     0.521754     0.529844  Biso 1.000000     O
    O   1.0     0.306713     0.389052     0.461307  Biso 1.000000     O
    O   1.0     0.928352     0.392797     0.868966  Biso 1.000000     O
    O   1.0     0.949638     0.471187     0.791580  Biso 1.000000     O
    O   1.0     0.778320     0.480858     0.679635  Biso 1.000000     O
    O   1.0     0.720917     0.596742     0.705962  Biso 1.000000     O
    O   1.0     0.460858     0.418932     0.804022  Biso 1.000000     O
    O   1.0     0.617434     0.561130     0.856225  Biso 1.000000     O
    O   1.0     0.759477     0.479338     0.970788  Biso 1.000000     O
    O   1.0     0.919831     0.610422     0.037665  Biso 1.000000     O
    O   1.0     0.463108     0.392278     0.368536  Biso 1.000000     O
    O   1.0     0.521789     0.471381     0.291599  Biso 1.000000     O
    O   1.0     0.702838     0.480785     0.179417  Biso 1.000000     O
    O   1.0     0.876510     0.596977     0.205462  Biso 1.000000     O
    O   1.0     0.957392     0.418269     0.303640  Biso 1.000000     O
    O   1.0     0.943542     0.560454     0.355765  Biso 1.000000     O
    O   1.0     0.718890     0.478253     0.469980  Biso 1.000000     O
    O   1.0     0.693292     0.610897     0.538502  Biso 1.000000     O
    O   1.0     0.071658     0.607189     0.130858  Biso 1.000000     O
    O   1.0     0.050396     0.528852     0.208278  Biso 1.000000     O
    O   1.0     0.221715     0.519181     0.320193  Biso 1.000000     O
    O   1.0     0.279060     0.403256     0.293872  Biso 1.000000     O
    O   1.0     0.539164     0.581068     0.195780  Biso 1.000000     O
    O   1.0     0.382568     0.438877     0.143621  Biso 1.000000     O
    O   1.0     0.240552     0.520646     0.029022  Biso 1.000000     O
    O   1.0     0.080143     0.389613     0.962194  Biso 1.000000     O
   Zn   1.0     0.090657     0.456249     0.894935  Biso 1.000000    Zn
   Zn   1.0     0.554954     0.460285     0.190014  Biso 1.000000    Zn
   Zn   1.0     0.635388     0.544101     0.605546  Biso 1.000000    Zn
   Zn   1.0     0.094539     0.539755     0.309683  Biso 1.000000    Zn
   Zn   1.0     0.909356     0.543768     0.104907  Biso 1.000000    Zn
   Zn   1.0     0.445083     0.539748     0.809842  Biso 1.000000    Zn
   Zn   1.0     0.364613     0.455873     0.394266  Biso 1.000000    Zn
   Zn   1.0     0.905485     0.460276     0.690178  Biso 1.000000    Zn
