#======================================================================

# CRYSTAL DATA

#----------------------------------------------------------------------

data_VESTA_phase_1


_pd_phase_name                         MOF
_cell_length_a                         13.99600
_cell_length_b                         14.62200
_cell_length_c                         18.58500
_cell_angle_alpha                      69.12400
_cell_angle_beta                       67.88000
_cell_angle_gamma                      61.40600
_symmetry_space_group_name_H-M         "P 1"
_symmetry_Int_Tables_number            1

loop_
_symmetry_equiv_pos_as_xyz
   "x, y, z"

loop_
   _atom_site_label
   _atom_site_occupancy
   _atom_site_fract_x
   _atom_site_fract_y
   _atom_site_fract_z
   _atom_site_adp_type
   _atom_site_B_iso_or_equiv
   _atom_site_type_symbol
    H   1.0     0.459927     0.601288     0.210391  Biso 1.000000     H
    H   1.0     0.568291     0.662024     0.251158  Biso 1.000000     H
    H   1.0     0.771640     0.546369     0.247356  Biso 1.000000     H
    H   1.0     0.886858     0.022282     0.192350  Biso 1.000000     H
    H   1.0     0.905003     0.049278     0.047936  Biso 1.000000     H
    H   1.0     0.819285     0.218514     0.000000  Biso 1.000000     H
    H   1.0     0.343187     0.355974     0.000000  Biso 1.000000     H
    H   1.0     0.451726     0.202776     0.938508  Biso 1.000000     H
    H   1.0     0.676499     0.073494     0.068219  Biso 1.000000     H
    H   1.0     0.561525     0.232594     0.127658  Biso 1.000000     H
    H   1.0     0.899951     0.851231     0.916987  Biso 1.000000     H
    H   1.0     0.797229    -0.003080     0.985429  Biso 1.000000     H
    H   1.0     0.494847     0.022086     0.952579  Biso 1.000000     H
    H   1.0     0.610268     0.875553     0.885738  Biso 1.000000     H
    H   1.0     0.269095     0.899686     0.306525  Biso 1.000000     H
    H   1.0     0.478904     0.839882     0.265786  Biso 1.000000     H
    H   1.0     0.561822     0.955722     0.270481  Biso 1.000000     H
    H   1.0     0.103103     0.471686     0.325407  Biso 1.000000     H
    H   1.0     0.004222     0.444885     0.469904  Biso 1.000000     H
    H   1.0     0.035555     0.258338     0.550066  Biso 1.000000     H
    H   1.0     0.689276     0.122341     0.545065  Biso 1.000000     H
    H   1.0     0.578260     0.275729     0.612981  Biso 1.000000     H
    H   1.0     0.809310     0.420236     0.448461  Biso 1.000000     H
    H   1.0     0.911064     0.261123     0.389285  Biso 1.000000     H
    H   1.0     0.656393     0.631968     0.633161  Biso 1.000000     H
    H   1.0     0.768516     0.478425     0.565309  Biso 1.000000     H
    H   1.0     0.455993     0.457601     0.598598  Biso 1.000000     H
    H   1.0     0.357470     0.611666     0.664848  Biso 1.000000     H
    H   1.0     0.510833     0.388430     0.823588  Biso 1.000000     H
    H   1.0     0.402470     0.327687     0.782827  Biso 1.000000     H
    H   1.0     0.199120     0.443339     0.786629  Biso 1.000000     H
    H   1.0     0.083903     0.967432     0.841632  Biso 1.000000     H
    H   1.0     0.065763     0.940433     0.986046  Biso 1.000000     H
    H   1.0     0.151481     0.771195     0.032369  Biso 1.000000     H
    H   1.0     0.627567     0.633744     0.027426  Biso 1.000000     H
    H   1.0     0.519030     0.786947     0.095476  Biso 1.000000     H
    H   1.0     0.294256     0.916220     0.965766  Biso 1.000000     H
    H   1.0     0.409229     0.757115     0.906331  Biso 1.000000     H
    H   1.0     0.070808     0.138492     0.116996  Biso 1.000000     H
    H   1.0     0.173527     0.992804     0.048553  Biso 1.000000     H
    H   1.0     0.475912     0.967635     0.081400  Biso 1.000000     H
    H   1.0     0.360493     0.114166     0.148243  Biso 1.000000     H
    H   1.0     0.701667     0.090021     0.727452  Biso 1.000000     H
    H   1.0     0.491859     0.149825     0.768188  Biso 1.000000     H
    H   1.0     0.408942     0.033987     0.763488  Biso 1.000000     H
    H   1.0     0.867659     0.518018     0.708590  Biso 1.000000     H
    H   1.0     0.966551     0.544804     0.564094  Biso 1.000000     H
    H   1.0     0.935225     0.731345     0.483922  Biso 1.000000     H
    H   1.0     0.281472     0.867363     0.488916  Biso 1.000000     H
    H   1.0     0.392489     0.713976     0.420999  Biso 1.000000     H
    H   1.0     0.161460     0.569452     0.585534  Biso 1.000000     H
    H   1.0     0.059704     0.728566     0.644710  Biso 1.000000     H
    H   1.0     0.314364     0.357738     0.400821  Biso 1.000000     H
    H   1.0     0.202242     0.511272     0.468682  Biso 1.000000     H
    H   1.0     0.514763     0.532108     0.435381  Biso 1.000000     H
    H   1.0     0.613286     0.378049     0.369124  Biso 1.000000     H
    C   1.0     0.528753     0.420835     0.168407  Biso 1.000000     C
    C   1.0     0.600473     0.455889     0.186224  Biso 1.000000     C
    C   1.0     0.548484     0.553335     0.209420  Biso 1.000000     C
    C   1.0     0.609017     0.586840     0.231828  Biso 1.000000     C
    C   1.0     0.721698     0.522971     0.230030  Biso 1.000000     C
    C   1.0     0.776472     0.426957     0.203823  Biso 1.000000     C
    C   1.0     0.716130     0.391788     0.180991  Biso 1.000000     C
    C   1.0     0.899589     0.368371     0.200232  Biso 1.000000     C
    C   1.0     0.796010     0.163235     0.279299  Biso 1.000000     C
    C   1.0     0.807110     0.189534     0.191554  Biso 1.000000     C
    C   1.0     0.857400     0.102304     0.155578  Biso 1.000000     C
    C   1.0     0.867352     0.117796     0.075120  Biso 1.000000     C
    C   1.0     0.827391     0.221151     0.030251  Biso 1.000000     C
    C   1.0     0.780413     0.309656     0.064374  Biso 1.000000     C
    C   1.0     0.769722     0.295057     0.146088  Biso 1.000000     C
    C   1.0     0.743403     0.419441     0.010718  Biso 1.000000     C
    C   1.0     0.415900     0.287585     0.000000  Biso 1.000000     C
    C   1.0     0.476237     0.201159     0.988194  Biso 1.000000     C
    C   1.0     0.568834     0.115254     0.000000  Biso 1.000000     C
    C   1.0     0.607413     0.138086     0.043700  Biso 1.000000     C
    C   1.0     0.543484     0.226817     0.077690  Biso 1.000000     C
    C   1.0     0.809017     0.893139     0.926776  Biso 1.000000     C
    C   1.0     0.748409     0.977739     0.965206  Biso 1.000000     C
    C   1.0     0.635796     0.023192     0.975156  Biso 1.000000     C
    C   1.0     0.580951     0.992726     0.945997  Biso 1.000000     C
    C   1.0     0.646732     0.906929     0.908942  Biso 1.000000     C
    C   1.0     0.118911     0.072457     0.349326  Biso 1.000000     C
    C   1.0     0.243485     0.037847     0.331319  Biso 1.000000     C
    C   1.0     0.308298     0.947828     0.307796  Biso 1.000000     C
    C   1.0     0.424700     0.914826     0.285403  Biso 1.000000     C
    C   1.0     0.471209     0.978826     0.287667  Biso 1.000000     C
    C   1.0     0.407613     0.067443     0.314148  Biso 1.000000     C
    C   1.0     0.289304     0.102211     0.336798  Biso 1.000000     C
    C   1.0     0.468042     0.126121     0.318330  Biso 1.000000     C
    C   1.0     0.238791     0.330692     0.238290  Biso 1.000000     C
    C   1.0     0.188784     0.304448     0.326117  Biso 1.000000     C
    C   1.0     0.116526     0.391706     0.362163  Biso 1.000000     C
    C   1.0     0.061631     0.376316     0.442655  Biso 1.000000     C
    C   1.0     0.079383     0.273043     0.487458  Biso 1.000000     C
    C   1.0     0.154388     0.184477     0.453272  Biso 1.000000     C
    C   1.0     0.211071     0.198962     0.371621  Biso 1.000000     C
    C   1.0     0.172242     0.074752     0.506768  Biso 1.000000     C
    C   1.0     0.712494     0.190239     0.526825  Biso 1.000000     C
    C   1.0     0.650901     0.276773     0.563196  Biso 1.000000     C
    C   1.0     0.684352     0.362086     0.537189  Biso 1.000000     C
    C   1.0     0.779602     0.356110     0.473249  Biso 1.000000     C
    C   1.0     0.837404     0.267324     0.439378  Biso 1.000000     C
    C   1.0     0.616120     0.590808     0.623630  Biso 1.000000     C
    C   1.0     0.677347     0.505866     0.585532  Biso 1.000000     C
    C   1.0     0.621671     0.454290     0.575835  Biso 1.000000     C
    C   1.0     0.504332     0.493254     0.604946  Biso 1.000000     C
    C   1.0     0.448504     0.579286     0.641679  Biso 1.000000     C
    C   1.0     0.442005     0.568884     0.865570  Biso 1.000000     C
    C   1.0     0.370286     0.533829     0.847754  Biso 1.000000     C
    C   1.0     0.422277     0.436382     0.824559  Biso 1.000000     C
    C   1.0     0.361743     0.402872     0.802155  Biso 1.000000     C
    C   1.0     0.249062     0.466740     0.803952  Biso 1.000000     C
    C   1.0     0.194287     0.562757     0.830157  Biso 1.000000     C
    C   1.0     0.254628     0.597927     0.852988  Biso 1.000000     C
    C   1.0     0.071170     0.621341     0.833746  Biso 1.000000     C
    C   1.0     0.174742     0.826483     0.754682  Biso 1.000000     C
    C   1.0     0.163648     0.800182     0.842426  Biso 1.000000     C
    C   1.0     0.113361     0.887410     0.878404  Biso 1.000000     C
    C   1.0     0.103413     0.871916     0.958861  Biso 1.000000     C
    C   1.0     0.143373     0.768559     0.000000  Biso 1.000000     C
    C   1.0     0.190348     0.680056     0.969604  Biso 1.000000     C
    C   1.0     0.201036     0.694658     0.887890  Biso 1.000000     C
    C   1.0     0.227355     0.570271     0.000000  Biso 1.000000     C
    C   1.0     0.554854     0.702132     0.009340  Biso 1.000000     C
    C   1.0     0.494519     0.788561     0.045790  Biso 1.000000     C
    C   1.0     0.401922     0.874465     0.020018  Biso 1.000000     C
    C   1.0     0.363343     0.851629     0.990285  Biso 1.000000     C
    C   1.0     0.427270     0.762895     0.956298  Biso 1.000000     C
    C   1.0     0.161742     0.096582     0.107207  Biso 1.000000     C
    C   1.0     0.222349     0.011983     0.068775  Biso 1.000000     C
    C   1.0     0.334961     0.966530     0.058825  Biso 1.000000     C
    C   1.0     0.389808    -0.003005     0.087984  Biso 1.000000     C
    C   1.0     0.324028     0.082791     0.125040  Biso 1.000000     C
    C   1.0     0.851854     0.917253     0.684650  Biso 1.000000     C
    C   1.0     0.727280     0.951859     0.702657  Biso 1.000000     C
    C   1.0     0.662466     0.041879     0.726180  Biso 1.000000     C
    C   1.0     0.546064     0.074882     0.748571  Biso 1.000000     C
    C   1.0     0.499556     0.010882     0.746304  Biso 1.000000     C
    C   1.0     0.563152     0.922264     0.719824  Biso 1.000000     C
    C   1.0     0.681461     0.887495     0.697177  Biso 1.000000     C
    C   1.0     0.502723     0.863588     0.715640  Biso 1.000000     C
    C   1.0     0.731966     0.659024     0.795697  Biso 1.000000     C
    C   1.0     0.781978     0.685259     0.707869  Biso 1.000000     C
    C   1.0     0.854239     0.597995     0.671830  Biso 1.000000     C
    C   1.0     0.909139     0.613377     0.591338  Biso 1.000000     C
    C   1.0     0.891394     0.716647     0.546530  Biso 1.000000     C
    C   1.0     0.816385     0.805218     0.580709  Biso 1.000000     C
    C   1.0     0.759698     0.790741     0.662359  Biso 1.000000     C
    C   1.0     0.798534     0.914940     0.527208  Biso 1.000000     C
    C   1.0     0.258258     0.799462     0.507158  Biso 1.000000     C
    C   1.0     0.319852     0.712929     0.470788  Biso 1.000000     C
    C   1.0     0.286406     0.627613     0.496798  Biso 1.000000     C
    C   1.0     0.191162     0.633582     0.560743  Biso 1.000000     C
    C   1.0     0.133359     0.722368     0.594614  Biso 1.000000     C
    C   1.0     0.354636     0.398898     0.410352  Biso 1.000000     C
    C   1.0     0.293410     0.483835     0.448455  Biso 1.000000     C
    C   1.0     0.349088     0.535412     0.458150  Biso 1.000000     C
    C   1.0     0.466425     0.496453     0.429034  Biso 1.000000     C
    C   1.0     0.522252     0.410425     0.392297  Biso 1.000000     C
    N   1.0     0.455357     0.309592     0.051478  Biso 1.000000     N
    N   1.0     0.759078     0.858129     0.898844  Biso 1.000000     N
    N   1.0     0.805023     0.185057     0.465842  Biso 1.000000     N
    N   1.0     0.503158     0.627120     0.651504  Biso 1.000000     N
    N   1.0     0.515398     0.680122     0.982511  Biso 1.000000     N
    N   1.0     0.211683     0.131591     0.135139  Biso 1.000000     N
    N   1.0     0.165734     0.804639     0.568146  Biso 1.000000     N
    N   1.0     0.467597     0.362592     0.382474  Biso 1.000000     N
    O   1.0     0.471436     0.484775     0.118202  Biso 1.000000     O
    O   1.0     0.526312     0.329447     0.205060  Biso 1.000000     O
    O   1.0     0.702399     0.208466     0.326402  Biso 1.000000     O
    O   1.0     0.883105     0.093366     0.302971  Biso 1.000000     O
    O   1.0     0.941254     0.389632     0.239347  Biso 1.000000     O
    O   1.0     0.961349     0.296695     0.158868  Biso 1.000000     O
    O   1.0     0.756981     0.492874     0.018735  Biso 1.000000     O
    O   1.0     0.685797     0.408567     0.992312  Biso 1.000000     O
    O   1.0     0.075431     0.008417     0.399427  Biso 1.000000     O
    O   1.0     0.061447     0.163904     0.312870  Biso 1.000000     O
    O   1.0     0.237168     0.285374     0.191388  Biso 1.000000     O
    O   1.0     0.279700     0.400593     0.214355  Biso 1.000000     O
    O   1.0     0.570395     0.104676     0.279702  Biso 1.000000     O
    O   1.0     0.416367     0.197958     0.359510  Biso 1.000000     O
    O   1.0     0.266790     0.000590     0.499143  Biso 1.000000     O
    O   1.0     0.080414     0.068985     0.558629  Biso 1.000000     O
    O   1.0     0.499316     0.504947     0.915778  Biso 1.000000     O
    O   1.0     0.444446     0.660272     0.828916  Biso 1.000000     O
    O   1.0     0.268349     0.781255     0.707575  Biso 1.000000     O
    O   1.0     0.087645     0.896353     0.731013  Biso 1.000000     O
    O   1.0     0.029510     0.600079     0.794631  Biso 1.000000     O
    O   1.0     0.009410     0.693020     0.875108  Biso 1.000000     O
    O   1.0     0.213777     0.496839     0.000000  Biso 1.000000     O
    O   1.0     0.284959     0.581144     0.041668  Biso 1.000000     O
    O   1.0     0.895332     0.981291     0.634540  Biso 1.000000     O
    O   1.0     0.909322     0.825815     0.721114  Biso 1.000000     O
    O   1.0     0.733594     0.704344     0.842595  Biso 1.000000     O
    O   1.0     0.691049     0.589129     0.819634  Biso 1.000000     O
    O   1.0     0.400372     0.885030     0.754273  Biso 1.000000     O
    O   1.0     0.554392     0.791757     0.674456  Biso 1.000000     O
    O   1.0     0.703987     0.989103     0.534830  Biso 1.000000     O
    O   1.0     0.890364     0.920705     0.475347  Biso 1.000000     O
   Zn   1.0     0.363761     0.440942     0.101809  Biso 1.000000    Zn
   Zn   1.0     0.551173     0.245615     0.314017  Biso 1.000000    Zn
   Zn   1.0     0.894300     0.053560     0.415619  Biso 1.000000    Zn
   Zn   1.0     0.110824     0.247932     0.204150  Biso 1.000000    Zn
   Zn   1.0     0.606988     0.548771     0.932179  Biso 1.000000    Zn
   Zn   1.0     0.419575     0.744104     0.719960  Biso 1.000000    Zn
   Zn   1.0     0.076463     0.936137     0.618365  Biso 1.000000    Zn
   Zn   1.0     0.859933     0.741793     0.829829  Biso 1.000000    Zn
