#======================================================================

# CRYSTAL DATA

#----------------------------------------------------------------------

data_VESTA_phase_1


_pd_phase_name                         MOF
_cell_length_a                         14.95300
_cell_length_b                         14.94900
_cell_length_c                         17.68900
_cell_angle_alpha                      90.83500
_cell_angle_beta                       88.66500
_cell_angle_gamma                      71.88500
_symmetry_space_group_name_H-M         "P 1"
_symmetry_Int_Tables_number            1

loop_
_symmetry_equiv_pos_as_xyz
   "x, y, z"

loop_
   _atom_site_label
   _atom_site_occupancy
   _atom_site_fract_x
   _atom_site_fract_y
   _atom_site_fract_z
   _atom_site_adp_type
   _atom_site_B_iso_or_equiv
   _atom_site_type_symbol
    C   1.0     0.175066     0.289179     0.611884  Biso 1.000000     C
    C   1.0     0.167530     0.845584     0.608373  Biso 1.000000     C
    C   1.0     0.667152     0.345090     0.608432  Biso 1.000000     C
    C   1.0     0.675312     0.788963     0.612186  Biso 1.000000     C
    C   1.0     0.041710     0.130783     0.485531  Biso 1.000000     C
    C   1.0     0.124102     0.645984     0.489067  Biso 1.000000     C
    C   1.0     0.622560     0.146386     0.487287  Biso 1.000000     C
    C   1.0     0.541123     0.630961     0.486425  Biso 1.000000     C
    C   1.0     0.128538     0.281837     0.308916  Biso 1.000000     C
    C   1.0     0.119134     0.852396     0.309566  Biso 1.000000     C
    C   1.0     0.619001     0.353232     0.309536  Biso 1.000000     C
    C   1.0     0.629285     0.779865     0.308965  Biso 1.000000     C
    C   1.0     0.144606     0.378933     0.809794  Biso 1.000000     C
    C   1.0     0.215586     0.871850     0.808225  Biso 1.000000     C
    C   1.0     0.715206     0.371923     0.808329  Biso 1.000000     C
    C   1.0     0.645024     0.878419     0.810157  Biso 1.000000     C
    C   1.0     0.350316     0.375687     0.987109  Biso 1.000000     C
    C   1.0     0.365670     0.957103     0.985199  Biso 1.000000     C
    C   1.0     0.866094     0.456196     0.985231  Biso 1.000000     C
    C   1.0     0.850028     0.875892     0.987377  Biso 1.000000     C
    C   1.0     0.152312     0.331216     0.108558  Biso 1.000000     C
    C   1.0     0.206732     0.823365     0.110771  Biso 1.000000     C
    C   1.0     0.706675     0.323495     0.110767  Biso 1.000000     C
    C   1.0     0.652531     0.829743     0.108912  Biso 1.000000     C
    C   1.0     0.326358     0.157107     0.388467  Biso 1.000000     C
    C   1.0     0.318649     0.712604     0.385208  Biso 1.000000     C
    C   1.0     0.818175     0.212672     0.385339  Biso 1.000000     C
    C   1.0     0.827664     0.655281     0.390431  Biso 1.000000     C
    C   1.0     0.371403     0.353869     0.510807  Biso 1.000000     C
    C   1.0     0.450973     0.870171     0.511958  Biso 1.000000     C
    C   1.0     0.951779     0.369993     0.512811  Biso 1.000000     C
    C   1.0     0.871722     0.853521     0.511194  Biso 1.000000     C
    C   1.0     0.373687     0.148370     0.687338  Biso 1.000000     C
    C   1.0     0.364241     0.720599     0.688428  Biso 1.000000     C
    C   1.0     0.864027     0.220603     0.688311  Biso 1.000000     C
    C   1.0     0.874018     0.648541     0.689378  Biso 1.000000     C
    C   1.0     0.277473     0.132394     0.188603  Biso 1.000000     C
    C   1.0     0.347031     0.624709     0.187000  Biso 1.000000     C
    C   1.0     0.847154     0.124806     0.187051  Biso 1.000000     C
    C   1.0     0.777962     0.629858     0.190678  Biso 1.000000     C
    C   1.0     0.126179     0.047449     0.012167  Biso 1.000000     C
    C   1.0     0.141835     0.628112     0.009664  Biso 1.000000     C
    C   1.0     0.641876     0.127880     0.009602  Biso 1.000000     C
    C   1.0     0.626530     0.546440     0.012685  Biso 1.000000     C
    C   1.0     0.285160     0.179937     0.885898  Biso 1.000000     C
    C   1.0     0.339831     0.672940     0.888802  Biso 1.000000     C
    C   1.0     0.839779     0.172968     0.888707  Biso 1.000000     C
    C   1.0     0.785126     0.679773     0.887817  Biso 1.000000     C
    N   1.0     0.166391     0.263080     0.549081  Biso 1.000000     N
    N   1.0     0.142913     0.845830     0.545290  Biso 1.000000     N
    N   1.0     0.642775     0.345169     0.545285  Biso 1.000000     N
    N   1.0     0.666575     0.762778     0.549415  Biso 1.000000     N
    N   1.0     0.039626     0.052666     0.484138  Biso 1.000000     N
    N   1.0     0.066431     0.609066     0.499861  Biso 1.000000     N
    N   1.0     0.564473     0.109774     0.497283  Biso 1.000000     N
    N   1.0     0.539792     0.552588     0.484877  Biso 1.000000     N
    N   1.0     0.104445     0.278482     0.372408  Biso 1.000000     N
    N   1.0     0.088265     0.874097     0.371004  Biso 1.000000     N
    N   1.0     0.588149     0.374806     0.370992  Biso 1.000000     N
    N   1.0     0.605151     0.777033     0.372518  Biso 1.000000     N
    N   1.0     0.122672     0.410704     0.870899  Biso 1.000000     N
    N   1.0     0.218669     0.896274     0.871463  Biso 1.000000     N
    N   1.0     0.718470     0.396385     0.871531  Biso 1.000000     N
    N   1.0     0.623108     0.910006     0.871314  Biso 1.000000     N
    N   1.0     0.387403     0.433226     0.997186  Biso 1.000000     N
    N   1.0     0.443730     0.959291     0.984204  Biso 1.000000     N
    N   1.0     0.943888     0.459140     0.984357  Biso 1.000000     N
    N   1.0     0.887233     0.933366     0.997289  Biso 1.000000     N
    N   1.0     0.150655     0.356771     0.045489  Biso 1.000000     N
    N   1.0     0.232673     0.832390     0.047746  Biso 1.000000     N
    N   1.0     0.732566     0.332124     0.047652  Biso 1.000000     N
    N   1.0     0.650094     0.856659     0.046215  Biso 1.000000     N
    N   1.0     0.351014     0.155891     0.451607  Biso 1.000000     N
    N   1.0     0.328076     0.737149     0.448305  Biso 1.000000     N
    N   1.0     0.827533     0.237347     0.448423  Biso 1.000000     N
    N   1.0     0.853103     0.654224     0.453329  Biso 1.000000     N
    N   1.0     0.429128     0.390837     0.500488  Biso 1.000000     N
    N   1.0     0.453577     0.948091     0.512584  Biso 1.000000     N
    N   1.0     0.955015     0.447697     0.514791  Biso 1.000000     N
    N   1.0     0.929308     0.890591     0.500593  Biso 1.000000     N
    N   1.0     0.404703     0.126298     0.625986  Biso 1.000000     N
    N   1.0     0.389100     0.722650     0.624981  Biso 1.000000     N
    N   1.0     0.888910     0.222493     0.624851  Biso 1.000000     N
    N   1.0     0.905560     0.626299     0.628190  Biso 1.000000     N
    N   1.0     0.273909     0.108181     0.125379  Biso 1.000000     N
    N   1.0     0.369029     0.592831     0.125937  Biso 1.000000     N
    N   1.0     0.869171     0.092953     0.125980  Biso 1.000000     N
    N   1.0     0.773974     0.606101     0.127372  Biso 1.000000     N
    N   1.0     0.048332     0.044649     0.012957  Biso 1.000000     N
    N   1.0     0.104803     0.570557    -0.000540  Biso 1.000000     N
    N   1.0     0.604908     0.070256    -0.000514  Biso 1.000000     N
    N   1.0     0.548438     0.544357     0.013194  Biso 1.000000     N
    N   1.0     0.259285     0.171685     0.949093  Biso 1.000000     N
    N   1.0     0.341509     0.647295     0.951848  Biso 1.000000     N
    N   1.0     0.841498     0.147264     0.951736  Biso 1.000000     N
    N   1.0     0.759209     0.671207     0.950953  Biso 1.000000     N
   Cu   1.0     0.077740     0.242264     0.472170  Biso 1.000000    Cu
   Cu   1.0     0.211126     0.711147     0.478332  Biso 1.000000    Cu
   Cu   1.0     0.710216     0.211168     0.477765  Biso 1.000000    Cu
   Cu   1.0     0.578208     0.741911     0.472487  Biso 1.000000    Cu
   Cu   1.0     0.285183     0.288640     0.977689  Biso 1.000000    Cu
   Cu   1.0     0.254061     0.922168     0.971168  Biso 1.000000    Cu
   Cu   1.0     0.753965     0.422349     0.971231  Biso 1.000000    Cu
   Cu   1.0     0.785116     0.788601     0.978398  Biso 1.000000    Cu
   Cu   1.0     0.284008     0.288874     0.520266  Biso 1.000000    Cu
   Cu   1.0     0.417630     0.757238     0.525045  Biso 1.000000    Cu
   Cu   1.0     0.917010     0.257709     0.525013  Biso 1.000000    Cu
   Cu   1.0     0.784378     0.788520     0.521036  Biso 1.000000    Cu
   Cu   1.0     0.238134     0.081764     0.025922  Biso 1.000000    Cu
   Cu   1.0     0.206976     0.715169     0.019176  Biso 1.000000    Cu
   Cu   1.0     0.706923     0.215003     0.019065  Biso 1.000000    Cu
   Cu   1.0     0.738022     0.581290     0.027641  Biso 1.000000    Cu
   Cu   1.0     0.171164     0.328238     0.712259  Biso 1.000000    Cu
   Cu   1.0     0.212935     0.839710     0.705730  Biso 1.000000    Cu
   Cu   1.0     0.712222     0.339712     0.705877  Biso 1.000000    Cu
   Cu   1.0     0.671468     0.828009     0.712551  Biso 1.000000    Cu
   Cu   1.0     0.280666     0.163952     0.291160  Biso 1.000000    Cu
   Cu   1.0     0.320946     0.675146     0.284593  Biso 1.000000    Cu
   Cu   1.0     0.820882     0.175171     0.284676  Biso 1.000000    Cu
   Cu   1.0     0.781303     0.661708     0.293240  Biso 1.000000    Cu
   Cu   1.0     0.159744     0.284848     0.205987  Biso 1.000000    Cu
   Cu   1.0     0.168430     0.826517     0.211494  Biso 1.000000    Cu
   Cu   1.0     0.668300     0.327253     0.211491  Biso 1.000000    Cu
   Cu   1.0     0.660751     0.782057     0.205996  Biso 1.000000    Cu
   Cu   1.0     0.323855     0.175401     0.785194  Biso 1.000000    Cu
   Cu   1.0     0.332449     0.719042     0.791353  Biso 1.000000    Cu
   Cu   1.0     0.832341     0.219075     0.791249  Biso 1.000000    Cu
   Cu   1.0     0.823868     0.675498     0.787141  Biso 1.000000    Cu
   Zn   1.0     0.043272    -0.077948     0.474873  Biso 1.000000    Zn
   Zn   1.0    -0.047882     0.577991     0.524760  Biso 1.000000    Zn
   Zn   1.0     0.449874     0.078550     0.522053  Biso 1.000000    Zn
   Zn   1.0     0.543262     0.422068     0.474964  Biso 1.000000    Zn
   Zn   1.0    -0.082023     0.047542     0.022194  Biso 1.000000    Zn
   Zn   1.0     0.074203     0.456256    -0.025262  Biso 1.000000    Zn
   Zn   1.0     0.574236    -0.044047    -0.025047  Biso 1.000000    Zn
   Zn   1.0     0.417993     0.547438     0.022191  Biso 1.000000    Zn
