#======================================================================

# CRYSTAL DATA

#----------------------------------------------------------------------

data_VESTA_phase_1


_pd_phase_name                         MOF
_cell_length_a                         24.01200
_cell_length_b                         13.55100
_cell_length_c                         21.80600
_cell_angle_alpha                      90.15300
_cell_angle_beta                       89.95000
_cell_angle_gamma                      89.90000
_symmetry_space_group_name_H-M         "P 1"
_symmetry_Int_Tables_number            1

loop_
_symmetry_equiv_pos_as_xyz
   "x, y, z"

loop_
   _atom_site_label
   _atom_site_occupancy
   _atom_site_fract_x
   _atom_site_fract_y
   _atom_site_fract_z
   _atom_site_adp_type
   _atom_site_B_iso_or_equiv
   _atom_site_type_symbol
    H   1.0     0.057177     0.525806     0.605510  Biso 1.000000     H
    H   1.0     0.557578     0.525691     0.605857  Biso 1.000000     H
    H   1.0     0.437116     0.336044     0.694062  Biso 1.000000     H
    H   1.0     0.937030     0.335890     0.694038  Biso 1.000000     H
    H   1.0     0.498725     0.263274     0.514391  Biso 1.000000     H
    H   1.0     0.997989     0.263663     0.514011  Biso 1.000000     H
    H   1.0     0.420764     0.502730     0.737569  Biso 1.000000     H
    H   1.0     0.920736     0.502737     0.737559  Biso 1.000000     H
    H   1.0    -0.032147     0.420996     0.775865  Biso 1.000000     H
    H   1.0     0.467834     0.420988     0.775912  Biso 1.000000     H
    H   1.0     0.023728     0.565406     0.811667  Biso 1.000000     H
    H   1.0     0.523597     0.565343     0.811949  Biso 1.000000     H
    H   1.0     0.454893     0.564088     0.842696  Biso 1.000000     H
    H   1.0     0.955093     0.564093     0.842653  Biso 1.000000     H
    H   1.0     0.457506     0.811988     0.702671  Biso 1.000000     H
    H   1.0     0.957386     0.812731     0.703134  Biso 1.000000     H
    H   1.0     0.281988     0.848655     0.740666  Biso 1.000000     H
    H   1.0     0.782005     0.849368     0.741845  Biso 1.000000     H
    H   1.0     0.373307     0.615196     0.827372  Biso 1.000000     H
    H   1.0     0.873327     0.614595     0.827138  Biso 1.000000     H
    H   1.0     0.191138     0.472952     0.107101  Biso 1.000000     H
    H   1.0     0.691258     0.473078     0.106863  Biso 1.000000     H
    H   1.0     0.312625     0.662813     0.193886  Biso 1.000000     H
    H   1.0     0.812840     0.662718     0.193659  Biso 1.000000     H
    H   1.0     0.250552     0.733177     0.014457  Biso 1.000000     H
    H   1.0     0.750537     0.733524     0.014384  Biso 1.000000     H
    H   1.0     0.328931     0.497666     0.237532  Biso 1.000000     H
    H   1.0     0.829041     0.497027     0.237209  Biso 1.000000     H
    H   1.0     0.281861     0.579226     0.276450  Biso 1.000000     H
    H   1.0     0.782110     0.578663     0.276264  Biso 1.000000     H
    H   1.0     0.226458     0.434419     0.312209  Biso 1.000000     H
    H   1.0     0.726471     0.433926     0.311769  Biso 1.000000     H
    H   1.0     0.295270     0.435369     0.342612  Biso 1.000000     H
    H   1.0     0.795221     0.434801     0.342306  Biso 1.000000     H
    H   1.0     0.292293     0.186217     0.203093  Biso 1.000000     H
    H   1.0     0.792485     0.186151     0.202099  Biso 1.000000     H
    H   1.0     0.467746     0.149782     0.240876  Biso 1.000000     H
    H   1.0     0.967922     0.149955     0.240127  Biso 1.000000     H
    H   1.0     0.376877     0.386089     0.326072  Biso 1.000000     H
    H   1.0     0.876725     0.385313     0.325854  Biso 1.000000     H
    H   1.0     0.439995     0.027074     0.893857  Biso 1.000000     H
    H   1.0     0.939820     0.027257     0.892307  Biso 1.000000     H
    H   1.0     0.062274     0.837766     0.805997  Biso 1.000000     H
    H   1.0     0.562221     0.838257     0.806538  Biso 1.000000     H
    H   1.0     0.000425     0.768339     0.985755  Biso 1.000000     H
    H   1.0     0.500744     0.767184     0.986125  Biso 1.000000     H
    H   1.0     0.078090     0.002933     0.763042  Biso 1.000000     H
    H   1.0     0.578011     0.003228     0.763835  Biso 1.000000     H
    H   1.0     0.531602     0.921653     0.724300  Biso 1.000000     H
    H   1.0     0.000000     0.921701     0.722968  Biso 1.000000     H
    H   1.0     0.476173     0.066861     0.688316  Biso 1.000000     H
    H   1.0     0.976430     0.067414     0.687526  Biso 1.000000     H
    H   1.0     0.045458     0.065925     0.657556  Biso 1.000000     H
    H   1.0     0.545139     0.064823     0.658248  Biso 1.000000     H
    H   1.0     0.042111     0.313819     0.798166  Biso 1.000000     H
    H   1.0     0.541975     0.313794     0.798179  Biso 1.000000     H
    H   1.0     0.217524     0.349948     0.760018  Biso 1.000000     H
    H   1.0     0.717354     0.349956     0.759865  Biso 1.000000     H
    H   1.0     0.126803     0.114776     0.674223  Biso 1.000000     H
    H   1.0     0.626591     0.114661     0.674237  Biso 1.000000     H
    H   1.0     0.307972     0.974228     0.394435  Biso 1.000000     H
    H   1.0     0.807668     0.973688     0.394264  Biso 1.000000     H
    H   1.0     0.187215     0.164090     0.306505  Biso 1.000000     H
    H   1.0     0.687062     0.163739     0.306204  Biso 1.000000     H
    H   1.0     0.248773     0.236794     0.486019  Biso 1.000000     H
    H   1.0     0.748379     0.236223     0.485833  Biso 1.000000     H
    H   1.0     0.170899     0.998016     0.263236  Biso 1.000000     H
    H   1.0     0.670690     0.996925     0.263083  Biso 1.000000     H
    H   1.0     0.218069     0.078892     0.224400  Biso 1.000000     H
    H   1.0     0.717447     0.078777     0.224488  Biso 1.000000     H
    H   1.0     0.273665     0.933132     0.189204  Biso 1.000000     H
    H   1.0     0.773423     0.934355     0.188166  Biso 1.000000     H
    H   1.0     0.205051     0.934594     0.158278  Biso 1.000000     H
    H   1.0     0.704694     0.935997     0.157607  Biso 1.000000     H
    H   1.0     0.206658     0.687542     0.298238  Biso 1.000000     H
    H   1.0     0.707476     0.687678     0.297396  Biso 1.000000     H
    H   1.0     0.031938     0.649684     0.257378  Biso 1.000000     H
    H   1.0     0.532127     0.651169     0.259183  Biso 1.000000     H
    H   1.0     0.123435     0.884457     0.172647  Biso 1.000000     H
    H   1.0     0.623255     0.884628     0.172651  Biso 1.000000     H
    C   1.0     0.064473     0.421283     0.498711  Biso 1.000000     C
    C   1.0     0.565155     0.420978     0.499096  Biso 1.000000     C
    C   1.0     0.030322     0.398174     0.553614  Biso 1.000000     C
    C   1.0     0.530904     0.397913     0.553959  Biso 1.000000     C
    C   1.0     0.031030     0.460279     0.604837  Biso 1.000000     C
    C   1.0     0.531460     0.460125     0.605138  Biso 1.000000     C
    C   1.0    -0.002335     0.438681     0.655879  Biso 1.000000     C
    C   1.0     0.497884     0.438684     0.656045  Biso 1.000000     C
    C   1.0     0.463871     0.355036     0.655639  Biso 1.000000     C
    C   1.0     0.963638     0.355026     0.655518  Biso 1.000000     C
    C   1.0     0.465229     0.291138     0.604828  Biso 1.000000     C
    C   1.0     0.964888     0.291228     0.604652  Biso 1.000000     C
    C   1.0     0.498285     0.312255     0.553906  Biso 1.000000     C
    C   1.0     0.997691     0.312539     0.553578  Biso 1.000000     C
    C   1.0     0.431555     0.198995     0.605564  Biso 1.000000     C
    C   1.0     0.931319     0.199017     0.605434  Biso 1.000000     C
    C   1.0     0.463893     0.494022     0.754059  Biso 1.000000     C
    C   1.0     0.963881     0.494010     0.753990  Biso 1.000000     C
    C   1.0    -0.020512     0.572813     0.800237  Biso 1.000000     C
    C   1.0     0.479395     0.572790     0.800364  Biso 1.000000     C
    C   1.0     0.422657     0.710653     0.767834  Biso 1.000000     C
    C   1.0     0.922640     0.710775     0.768001  Biso 1.000000     C
    C   1.0     0.420110     0.790410     0.727343  Biso 1.000000     C
    C   1.0     0.920040     0.790956     0.727828  Biso 1.000000     C
    C   1.0     0.369952     0.840782     0.718041  Biso 1.000000     C
    C   1.0     0.869901     0.841548     0.718926  Biso 1.000000     C
    C   1.0     0.321282     0.810559     0.748257  Biso 1.000000     C
    C   1.0     0.821293     0.811097     0.749127  Biso 1.000000     C
    C   1.0     0.323543     0.728051     0.786534  Biso 1.000000     C
    C   1.0     0.823579     0.728093     0.786958  Biso 1.000000     C
    C   1.0     0.374087     0.678533     0.796853  Biso 1.000000     C
    C   1.0     0.874100     0.678337     0.796945  Biso 1.000000     C
    C   1.0     0.272193     0.687969     0.816052  Biso 1.000000     C
    C   1.0     0.772207     0.687816     0.816252  Biso 1.000000     C
    C   1.0     0.368402     0.923358     0.673200  Biso 1.000000     C
    C   1.0     0.868126     0.924490     0.674366  Biso 1.000000     C
    C   1.0     0.183248     0.577209     0.000000  Biso 1.000000     C
    C   1.0     0.683355     0.577349     0.000000  Biso 1.000000     C
    C   1.0     0.218088     0.599595     0.054610  Biso 1.000000     C
    C   1.0     0.718177     0.599814     0.054465  Biso 1.000000     C
    C   1.0     0.217564     0.538109     0.105926  Biso 1.000000     C
    C   1.0     0.717674     0.538247     0.105729  Biso 1.000000     C
    C   1.0     0.251514     0.560018     0.156474  Biso 1.000000     C
    C   1.0     0.751667     0.560032     0.156249  Biso 1.000000     C
    C   1.0     0.285755     0.643344     0.155640  Biso 1.000000     C
    C   1.0     0.785912     0.643360     0.155439  Biso 1.000000     C
    C   1.0     0.284306     0.706373     0.104685  Biso 1.000000     C
    C   1.0     0.784396     0.706529     0.104541  Biso 1.000000     C
    C   1.0     0.251043     0.684745     0.054056  Biso 1.000000     C
    C   1.0     0.751078     0.685020     0.053947  Biso 1.000000     C
    C   1.0     0.317632     0.798715     0.104933  Biso 1.000000     C
    C   1.0     0.817741     0.798878     0.104775  Biso 1.000000     C
    C   1.0     0.285869     0.506170     0.254384  Biso 1.000000     C
    C   1.0     0.785998     0.505670     0.254090  Biso 1.000000     C
    C   1.0     0.270638     0.427150     0.300365  Biso 1.000000     C
    C   1.0     0.770665     0.426596     0.300005  Biso 1.000000     C
    C   1.0     0.327296     0.289201     0.267392  Biso 1.000000     C
    C   1.0     0.827333     0.288775     0.266796  Biso 1.000000     C
    C   1.0     0.329721     0.208337     0.227502  Biso 1.000000     C
    C   1.0     0.829869     0.208234     0.226620  Biso 1.000000     C
    C   1.0     0.379769     0.157467     0.218508  Biso 1.000000     C
    C   1.0     0.879995     0.157583     0.217548  Biso 1.000000     C
    C   1.0     0.428522     0.188289     0.248286  Biso 1.000000     C
    C   1.0     0.928660     0.188331     0.247548  Biso 1.000000     C
    C   1.0     0.426378     0.271764     0.285979  Biso 1.000000     C
    C   1.0     0.926415     0.271543     0.285466  Biso 1.000000     C
    C   1.0     0.375933     0.321910     0.296038  Biso 1.000000     C
    C   1.0     0.875903     0.321393     0.295605  Biso 1.000000     C
    C   1.0     0.477827     0.312283     0.314981  Biso 1.000000     C
    C   1.0     0.977754     0.312018     0.314765  Biso 1.000000     C
    C   1.0     0.381181     0.073822     0.174250  Biso 1.000000     C
    C   1.0     0.881657     0.073859     0.173264  Biso 1.000000     C
    C   1.0     0.432817     0.922685     0.000655  Biso 1.000000     C
    C   1.0     0.932271     0.924174    -0.000695  Biso 1.000000     C
    C   1.0     0.467596     0.900484     0.946083  Biso 1.000000     C
    C   1.0     0.967375     0.901294     0.945122  Biso 1.000000     C
    C   1.0     0.466689     0.962062     0.894822  Biso 1.000000     C
    C   1.0     0.966562     0.962328     0.893616  Biso 1.000000     C
    C   1.0     0.500623     0.940430     0.844134  Biso 1.000000     C
    C   1.0     0.000000     0.940259     0.843099  Biso 1.000000     C
    C   1.0     0.035292     0.857302     0.844219  Biso 1.000000     C
    C   1.0     0.535292     0.857441     0.844867  Biso 1.000000     C
    C   1.0     0.034181     0.794670     0.895396  Biso 1.000000     C
    C   1.0     0.534263     0.794348     0.895793  Biso 1.000000     C
    C   1.0     0.000735     0.816390     0.945970  Biso 1.000000     C
    C   1.0     0.500946     0.815604     0.946519  Biso 1.000000     C
    C   1.0     0.068166     0.702751     0.895297  Biso 1.000000     C
    C   1.0     0.568268     0.702515     0.895395  Biso 1.000000     C
    C   1.0     0.035306    -0.005504     0.745472  Biso 1.000000     C
    C   1.0     0.535155    -0.005336     0.746502  Biso 1.000000     C
    C   1.0     0.520297     0.073660     0.700358  Biso 1.000000     C
    C   1.0     0.000000     0.074078     0.699669  Biso 1.000000     C
    C   1.0     0.077183     0.211318     0.733338  Biso 1.000000     C
    C   1.0     0.577022     0.211225     0.733388  Biso 1.000000     C
    C   1.0     0.079554     0.291760     0.773593  Biso 1.000000     C
    C   1.0     0.579399     0.291760     0.773564  Biso 1.000000     C
    C   1.0     0.129582     0.342350     0.782662  Biso 1.000000     C
    C   1.0     0.629434     0.342336     0.782604  Biso 1.000000     C
    C   1.0     0.178338     0.311601     0.752604  Biso 1.000000     C
    C   1.0     0.678159     0.311624     0.752482  Biso 1.000000     C
    C   1.0     0.176275     0.228412     0.714661  Biso 1.000000     C
    C   1.0     0.676094     0.228342     0.714621  Biso 1.000000     C
    C   1.0     0.125845     0.178661     0.704503  Biso 1.000000     C
    C   1.0     0.625658     0.178590     0.704485  Biso 1.000000     C
    C   1.0     0.227712     0.187911     0.685290  Biso 1.000000     C
    C   1.0     0.727547     0.187927     0.685235  Biso 1.000000     C
    C   1.0     0.131045     0.426117     0.826907  Biso 1.000000     C
    C   1.0     0.630922     0.426088     0.826841  Biso 1.000000     C
    C   1.0     0.315483     0.078986     0.501079  Biso 1.000000     C
    C   1.0     0.815015     0.078530     0.501069  Biso 1.000000     C
    C   1.0     0.281146     0.102108     0.446355  Biso 1.000000     C
    C   1.0     0.780770     0.101529     0.446218  Biso 1.000000     C
    C   1.0     0.281749     0.039849     0.395200  Biso 1.000000     C
    C   1.0     0.781452     0.039321     0.395022  Biso 1.000000     C
    C   1.0     0.248115     0.061350     0.344391  Biso 1.000000     C
    C   1.0     0.747887     0.060879     0.344149  Biso 1.000000     C
    C   1.0     0.214011     0.145054     0.344862  Biso 1.000000     C
    C   1.0     0.713806     0.144643     0.344593  Biso 1.000000     C
    C   1.0     0.215334     0.208961     0.395640  Biso 1.000000     C
    C   1.0     0.715095     0.208550     0.395375  Biso 1.000000     C
    C   1.0     0.248401     0.187807     0.446507  Biso 1.000000     C
    C   1.0     0.748055     0.187269     0.446306  Biso 1.000000     C
    C   1.0     0.181564     0.301116     0.394831  Biso 1.000000     C
    C   1.0     0.681476     0.300918     0.394556  Biso 1.000000     C
    C   1.0     0.214013     0.000000     0.246540  Biso 1.000000     C
    C   1.0     0.713739     0.000000     0.246316  Biso 1.000000     C
    C   1.0     0.229401     0.926481     0.200709  Biso 1.000000     C
    C   1.0     0.729231     0.927031     0.199852  Biso 1.000000     C
    C   1.0     0.172342     0.789035     0.232817  Biso 1.000000     C
    C   1.0     0.672639     0.789081     0.232190  Biso 1.000000     C
    C   1.0     0.169547     0.708952     0.272997  Biso 1.000000     C
    C   1.0     0.670115     0.709299     0.272670  Biso 1.000000     C
    C   1.0     0.119541     0.658080     0.281283  Biso 1.000000     C
    C   1.0     0.620010     0.658982     0.281916  Biso 1.000000     C
    C   1.0     0.071173     0.688082     0.250447  Biso 1.000000     C
    C   1.0     0.571375     0.689232     0.251638  Biso 1.000000     C
    C   1.0     0.073605     0.770838     0.212429  Biso 1.000000     C
    C   1.0     0.573601     0.771740     0.213381  Biso 1.000000     C
    C   1.0     0.124073     0.820901     0.203000  Biso 1.000000     C
    C   1.0     0.624080     0.821249     0.203137  Biso 1.000000     C
    C   1.0     0.022298     0.810604     0.182619  Biso 1.000000     C
    C   1.0     0.522261     0.811971     0.183888  Biso 1.000000     C
    C   1.0     0.117794     0.575230     0.325825  Biso 1.000000     C
    C   1.0     0.618384     0.576548     0.326849  Biso 1.000000     C
    O   1.0     0.097911     0.495986     0.501445  Biso 1.000000     O
    O   1.0     0.598564     0.495748     0.501781  Biso 1.000000     O
    O   1.0     0.060598     0.365878     0.451791  Biso 1.000000     O
    O   1.0     0.561332     0.365587     0.452163  Biso 1.000000     O
    O   1.0     0.393654     0.188108     0.645586  Biso 1.000000     O
    O   1.0     0.893467     0.188077     0.645483  Biso 1.000000     O
    O   1.0     0.444568     0.133218     0.564902  Biso 1.000000     O
    O   1.0     0.944417     0.133162     0.564834  Biso 1.000000     O
    O   1.0     0.002084     0.503439     0.703750  Biso 1.000000     O
    O   1.0     0.502145     0.503535     0.703886  Biso 1.000000     O
    O   1.0    -0.025399     0.670654     0.775792  Biso 1.000000     O
    O   1.0     0.474591     0.670628     0.775877  Biso 1.000000     O
    O   1.0     0.224625     0.728695     0.805419  Biso 1.000000     O
    O   1.0     0.724658     0.728574     0.805528  Biso 1.000000     O
    O   1.0     0.275384     0.612783     0.850703  Biso 1.000000     O
    O   1.0     0.775346     0.612516     0.850793  Biso 1.000000     O
    O   1.0     0.328807    -0.014744     0.674924  Biso 1.000000     O
    O   1.0     0.828954    -0.012922     0.677196  Biso 1.000000     O
    O   1.0     0.408528     0.925135     0.633276  Biso 1.000000     O
    O   1.0     0.907624     0.925595     0.633679  Biso 1.000000     O
    O   1.0     0.148846     0.503990     0.000000  Biso 1.000000     O
    O   1.0     0.649122     0.503881     0.000000  Biso 1.000000     O
    O   1.0     0.187332     0.632322     0.953238  Biso 1.000000     O
    O   1.0     0.687299     0.632516     0.953146  Biso 1.000000     O
    O   1.0     0.355781     0.810936     0.144445  Biso 1.000000     O
    O   1.0     0.856057     0.810720     0.144109  Biso 1.000000     O
    O   1.0     0.303852     0.863654     0.064219  Biso 1.000000     O
    O   1.0     0.803768     0.863914     0.064180  Biso 1.000000     O
    O   1.0     0.247368     0.496125     0.204558  Biso 1.000000     O
    O   1.0     0.747466     0.496022     0.204266  Biso 1.000000     O
    O   1.0     0.275420     0.329697     0.274976  Biso 1.000000     O
    O   1.0     0.775431     0.329096     0.274673  Biso 1.000000     O
    O   1.0     0.025361     0.271181     0.304098  Biso 1.000000     O
    O   1.0     0.525367     0.271427     0.304155  Biso 1.000000     O
    O   1.0     0.474722     0.387910     0.349509  Biso 1.000000     O
    O   1.0     0.974530     0.387572     0.349329  Biso 1.000000     O
    O   1.0     0.421072     0.000000     0.175992  Biso 1.000000     O
    O   1.0     0.921319     0.000000     0.175873  Biso 1.000000     O
    O   1.0     0.340613     0.070522     0.135007  Biso 1.000000     O
    O   1.0     0.841662     0.070920     0.133370  Biso 1.000000     O
    O   1.0     0.398337     0.995946    -0.001910  Biso 1.000000     O
    O   1.0     0.898232     0.998088    -0.003571  Biso 1.000000     O
    O   1.0     0.437135     0.867214     0.047440  Biso 1.000000     O
    O   1.0     0.935484     0.868743     0.046231  Biso 1.000000     O
    O   1.0     0.106522     0.691474     0.855874  Biso 1.000000     O
    O   1.0     0.606521     0.691437     0.855836  Biso 1.000000     O
    O   1.0     0.054697     0.637632     0.936009  Biso 1.000000     O
    O   1.0     0.554926     0.637290     0.936078  Biso 1.000000     O
    O   1.0     0.496125     0.004210     0.796000  Biso 1.000000     O
    O   1.0     0.996041     0.003650     0.794770  Biso 1.000000     O
    O   1.0     0.525143     0.171230     0.725464  Biso 1.000000     O
    O   1.0     0.000000     0.171260     0.725386  Biso 1.000000     O
    O   1.0     0.275239     0.228594     0.695975  Biso 1.000000     O
    O   1.0     0.775046     0.228714     0.695919  Biso 1.000000     O
    O   1.0     0.224631     0.112451     0.650640  Biso 1.000000     O
    O   1.0     0.724519     0.112377     0.650664  Biso 1.000000     O
    O   1.0     0.170644     0.487616     0.824331  Biso 1.000000     O
    O   1.0     0.670547     0.487545     0.824313  Biso 1.000000     O
    O   1.0     0.090928     0.429289     0.866806  Biso 1.000000     O
    O   1.0     0.590842     0.429216     0.866788  Biso 1.000000     O
    O   1.0     0.348971     0.004136     0.498298  Biso 1.000000     O
    O   1.0     0.848810     0.004100     0.498298  Biso 1.000000     O
    O   1.0     0.311729     0.134459     0.548008  Biso 1.000000     O
    O   1.0     0.810804     0.133730     0.548074  Biso 1.000000     O
    O   1.0     0.143782     0.312033     0.354744  Biso 1.000000     O
    O   1.0     0.643652     0.311979     0.354512  Biso 1.000000     O
    O   1.0     0.194412     0.366908     0.435506  Biso 1.000000     O
    O   1.0     0.694481     0.366684     0.435146  Biso 1.000000     O
    O   1.0     0.252353     0.996510     0.296554  Biso 1.000000     O
    O   1.0     0.752195     0.996105     0.296244  Biso 1.000000     O
    O   1.0     0.224276     0.829367     0.226125  Biso 1.000000     O
    O   1.0     0.724520     0.829109     0.224205  Biso 1.000000     O
    O   1.0     0.474694     0.771347     0.194539  Biso 1.000000     O
    O   1.0     0.974599     0.771415     0.194521  Biso 1.000000     O
    O   1.0     0.025527     0.884201     0.146710  Biso 1.000000     O
    O   1.0     0.525425     0.887157     0.149290  Biso 1.000000     O
    O   1.0     0.078815     0.512597     0.322849  Biso 1.000000     O
    O   1.0     0.578881     0.514753     0.325080  Biso 1.000000     O
    O   1.0     0.157179     0.574265     0.366581  Biso 1.000000     O
    O   1.0     0.658337     0.574879     0.366911  Biso 1.000000     O
   Zn   1.0     0.314788     0.125105     0.642586  Biso 1.000000    Zn
   Zn   1.0     0.814668     0.125131     0.642677  Biso 1.000000    Zn
   Zn   1.0     0.398182     0.017305     0.568027  Biso 1.000000    Zn
   Zn   1.0     0.897986     0.017304     0.568082  Biso 1.000000    Zn
   Zn   1.0     0.435129     0.874556     0.141573  Biso 1.000000    Zn
   Zn   1.0     0.935086     0.874551     0.141231  Biso 1.000000    Zn
   Zn   1.0     0.349926     0.979378     0.068760  Biso 1.000000    Zn
   Zn   1.0     0.849942     0.979500     0.066927  Biso 1.000000    Zn
   Zn   1.0     0.185116     0.625481     0.858605  Biso 1.000000    Zn
   Zn   1.0     0.685071     0.625411     0.858571  Biso 1.000000    Zn
   Zn   1.0     0.100112     0.520802     0.933024  Biso 1.000000    Zn
   Zn   1.0     0.600357     0.520600     0.933002  Biso 1.000000    Zn
   Zn   1.0     0.064705     0.374733     0.357340  Biso 1.000000    Zn
   Zn   1.0     0.564767     0.374978     0.357505  Biso 1.000000    Zn
   Zn   1.0     0.147763     0.482597     0.432088  Biso 1.000000    Zn
   Zn   1.0     0.648003     0.482717     0.432096  Biso 1.000000    Zn
