#======================================================================

# CRYSTAL DATA

#----------------------------------------------------------------------

data_VESTA_phase_1


_pd_phase_name                         MOF
_cell_length_a                         18.44500
_cell_length_b                         18.42200
_cell_length_c                         18.41300
_cell_angle_alpha                      60.14400
_cell_angle_beta                       60.17800
_cell_angle_gamma                      60.19100
_symmetry_space_group_name_H-M         "P 1"
_symmetry_Int_Tables_number            1

loop_
_symmetry_equiv_pos_as_xyz
   "x, y, z"

loop_
   _atom_site_label
   _atom_site_occupancy
   _atom_site_fract_x
   _atom_site_fract_y
   _atom_site_fract_z
   _atom_site_adp_type
   _atom_site_B_iso_or_equiv
   _atom_site_type_symbol
    H   1.0     0.664101     0.952232     0.431466  Biso 1.000000     H
    H   1.0     0.952363     0.664368     0.952225  Biso 1.000000     H
    H   1.0     0.432323     0.951312     0.664527  Biso 1.000000     H
    H   1.0     0.951252     0.431982     0.951838  Biso 1.000000     H
    H   1.0     0.664105     0.431578     0.952217  Biso 1.000000     H
    H   1.0     0.951366     0.951832     0.431861  Biso 1.000000     H
    H   1.0     0.432291     0.664399     0.951386  Biso 1.000000     H
    H   1.0     0.952277     0.952146     0.664498  Biso 1.000000     H
    H   1.0     0.664076     0.952551     0.952599  Biso 1.000000     H
    H   1.0     0.951593     0.431868     0.664514  Biso 1.000000     H
    H   1.0     0.432562     0.951171     0.951311  Biso 1.000000     H
    H   1.0     0.951787     0.664382     0.431665  Biso 1.000000     H
    H   1.0     0.048212     0.335606     0.568358  Biso 1.000000     H
    H   1.0     0.335925     0.047443     0.047419  Biso 1.000000     H
    H   1.0     0.048407     0.568120     0.335509  Biso 1.000000     H
    H   1.0     0.567439     0.048822     0.048707  Biso 1.000000     H
    H   1.0     0.567710     0.335589     0.048639  Biso 1.000000     H
    H   1.0     0.048635     0.048156     0.568162  Biso 1.000000     H
    H   1.0     0.335896     0.568410     0.047807  Biso 1.000000     H
    H   1.0     0.047724     0.047842     0.335526  Biso 1.000000     H
    H   1.0     0.047635     0.335620     0.047800  Biso 1.000000     H
    H   1.0     0.567678     0.048673     0.335496  Biso 1.000000     H
    H   1.0     0.048746     0.568007     0.048187  Biso 1.000000     H
    H   1.0     0.335900     0.047753     0.568557  Biso 1.000000     H
    C   1.0     0.592213     0.973544     0.460718  Biso 1.000000     C
    C   1.0     0.973620     0.592360     0.973540  Biso 1.000000     C
    C   1.0     0.461188     0.973030     0.592457  Biso 1.000000     C
    C   1.0     0.973000     0.461006     0.973326  Biso 1.000000     C
    C   1.0     0.592216     0.460771     0.973546  Biso 1.000000     C
    C   1.0     0.973059     0.973311     0.460948  Biso 1.000000     C
    C   1.0     0.461169     0.592376     0.973081  Biso 1.000000     C
    C   1.0     0.973568     0.973483     0.592441  Biso 1.000000     C
    C   1.0     0.592198     0.973706     0.973754  Biso 1.000000     C
    C   1.0     0.973192     0.460934     0.592450  Biso 1.000000     C
    C   1.0     0.461328     0.972942     0.973042  Biso 1.000000     C
    C   1.0     0.973302     0.592369     0.460828  Biso 1.000000     C
    C   1.0     0.026698     0.407619     0.539195  Biso 1.000000     C
    C   1.0     0.407802     0.026282     0.026269  Biso 1.000000     C
    C   1.0     0.026808     0.539054     0.407573  Biso 1.000000     C
    C   1.0     0.538672     0.027047     0.026980  Biso 1.000000     C
    C   1.0     0.538831     0.407612     0.026942  Biso 1.000000     C
    C   1.0     0.026941     0.026677     0.539075  Biso 1.000000     C
    C   1.0     0.407785     0.539217     0.026477  Biso 1.000000     C
    C   1.0     0.026432     0.026506     0.407582  Biso 1.000000     C
    C   1.0     0.026380     0.407628     0.026484  Biso 1.000000     C
    C   1.0     0.538813     0.026957     0.407566  Biso 1.000000     C
    C   1.0     0.027000     0.538982     0.026698  Biso 1.000000     C
    C   1.0     0.407788     0.026443     0.539305  Biso 1.000000     C
    C   1.0     0.553736     0.946220     0.553502  Biso 1.000000     C
    C   1.0     0.611122     0.888804     0.610733  Biso 1.000000     C
    C   1.0     0.946266     0.553720     0.946498  Biso 1.000000     C
    C   1.0     0.888874     0.611111     0.889241  Biso 1.000000     C
    C   1.0     0.553718     0.553493     0.946263  Biso 1.000000     C
    C   1.0     0.611092     0.610727     0.888806  Biso 1.000000     C
    C   1.0     0.946284     0.946447     0.553724  Biso 1.000000     C
    C   1.0     0.888885     0.889198     0.611106  Biso 1.000000     C
    C   1.0     0.553871     0.946336     0.946403  Biso 1.000000     C
    C   1.0     0.611357     0.888913     0.889167  Biso 1.000000     C
    C   1.0     0.946146     0.553645     0.553603  Biso 1.000000     C
    C   1.0     0.888625     0.610983     0.610901  Biso 1.000000     C
    C   1.0     0.053854     0.446343     0.446420  Biso 1.000000     C
    C   1.0     0.111375     0.389006     0.389122  Biso 1.000000     C
    C   1.0     0.446129     0.053692     0.053580  Biso 1.000000     C
    C   1.0     0.388643     0.110988     0.110944  Biso 1.000000     C
    C   1.0     0.446283     0.446495     0.053772  Biso 1.000000     C
    C   1.0     0.388909     0.389261     0.111192  Biso 1.000000     C
    C   1.0     0.053720     0.053538     0.446299  Biso 1.000000     C
    C   1.0     0.111109     0.110797     0.388917  Biso 1.000000     C
    C   1.0     0.053724     0.446268     0.053536  Biso 1.000000     C
    C   1.0     0.111149     0.388877     0.110760  Biso 1.000000     C
    C   1.0     0.446265     0.053751     0.446522  Biso 1.000000     C
    C   1.0     0.388879     0.111219     0.389290  Biso 1.000000     C
    O   1.0     0.750133     0.750001     0.750000  Biso 1.000000     O
    O   1.0     0.249867     0.249987     0.250023  Biso 1.000000     O
    O   1.0     0.694787     0.866754     0.571038  Biso 1.000000     O
    O   1.0     0.866956     0.694931     0.867253  Biso 1.000000     O
    O   1.0     0.571677     0.866509     0.694602  Biso 1.000000     O
    O   1.0     0.866544     0.571493     0.867089  Biso 1.000000     O
    O   1.0     0.694755     0.571084     0.866856  Biso 1.000000     O
    O   1.0     0.866583     0.867074     0.571429  Biso 1.000000     O
    O   1.0     0.571651     0.694541     0.866480  Biso 1.000000     O
    O   1.0     0.866982     0.867142     0.694984  Biso 1.000000     O
    O   1.0     0.695026     0.867137     0.867214  Biso 1.000000     O
    O   1.0     0.866376     0.571370     0.694766  Biso 1.000000     O
    O   1.0     0.571930     0.866564     0.866839  Biso 1.000000     O
    O   1.0     0.866540     0.694794     0.571226  Biso 1.000000     O
    O   1.0     0.133459     0.305195     0.428798  Biso 1.000000     O
    O   1.0     0.304974     0.132873     0.132787  Biso 1.000000     O
    O   1.0     0.133625     0.428618     0.305257  Biso 1.000000     O
    O   1.0     0.428070     0.133445     0.133163  Biso 1.000000     O
    O   1.0     0.428350     0.305447     0.133548  Biso 1.000000     O
    O   1.0     0.133420     0.132912     0.428594  Biso 1.000000     O
    O   1.0     0.305246     0.428904     0.133173  Biso 1.000000     O
    O   1.0     0.133018     0.132846     0.305040  Biso 1.000000     O
    O   1.0     0.133040     0.305056     0.132776  Biso 1.000000     O
    O   1.0     0.428324     0.133470     0.305421  Biso 1.000000     O
    O   1.0     0.133451     0.428495     0.132941  Biso 1.000000     O
    O   1.0     0.305214     0.133225     0.428985  Biso 1.000000     O
   Zn   1.0     0.793272     0.793476     0.619399  Biso 1.000000    Zn
   Zn   1.0     0.793613     0.793711     0.793804  Biso 1.000000    Zn
   Zn   1.0     0.619872     0.793183     0.793289  Biso 1.000000    Zn
   Zn   1.0     0.793201     0.619495     0.793504  Biso 1.000000    Zn
   Zn   1.0     0.206729     0.206513     0.380624  Biso 1.000000    Zn
   Zn   1.0     0.206388     0.206276     0.206220  Biso 1.000000    Zn
   Zn   1.0     0.206800     0.380493     0.206519  Biso 1.000000    Zn
   Zn   1.0     0.380129     0.206804     0.206735  Biso 1.000000    Zn
