#======================================================================

# CRYSTAL DATA

#----------------------------------------------------------------------

data_VESTA_phase_1


_pd_phase_name                         MOF
_cell_length_a                         22.10300
_cell_length_b                         22.11200
_cell_length_c                         22.11000
_cell_angle_alpha                      60.18900
_cell_angle_beta                       60.12200
_cell_angle_gamma                      60.13400
_symmetry_space_group_name_H-M         "P 1"
_symmetry_Int_Tables_number            1

loop_
_symmetry_equiv_pos_as_xyz
   "x, y, z"

loop_
   _atom_site_label
   _atom_site_occupancy
   _atom_site_fract_x
   _atom_site_fract_y
   _atom_site_fract_z
   _atom_site_adp_type
   _atom_site_B_iso_or_equiv
   _atom_site_type_symbol
    H   1.0     0.074837     0.539570     0.310798  Biso 1.000000     H
    H   1.0     0.539602     0.075088     0.075083  Biso 1.000000     H
    H   1.0     0.310613     0.074578     0.074574  Biso 1.000000     H
    H   1.0     0.074788     0.310842     0.539614  Biso 1.000000     H
    H   1.0     0.074339     0.310843     0.074408  Biso 1.000000     H
    H   1.0     0.539911     0.074695     0.310823  Biso 1.000000     H
    H   1.0     0.310678     0.074840     0.539683  Biso 1.000000     H
    H   1.0     0.075110     0.539530     0.075089  Biso 1.000000     H
    H   1.0     0.075087     0.075075     0.539562  Biso 1.000000     H
    H   1.0     0.539917     0.310870     0.074663  Biso 1.000000     H
    H   1.0     0.310689     0.539641     0.074853  Biso 1.000000     H
    H   1.0     0.074356     0.074437     0.310809  Biso 1.000000     H
    H   1.0     0.460102     0.925333     0.689181  Biso 1.000000     H
    H   1.0     0.924902     0.460497     0.924917  Biso 1.000000     H
    H   1.0     0.925674     0.689184     0.925596  Biso 1.000000     H
    H   1.0     0.689335     0.925187     0.460322  Biso 1.000000     H
    H   1.0     0.689400     0.925450     0.925429  Biso 1.000000     H
    H   1.0     0.925176     0.460457     0.689206  Biso 1.000000     H
    H   1.0     0.925225     0.689184     0.460390  Biso 1.000000     H
    H   1.0     0.460411     0.924938     0.924922  Biso 1.000000     H
    H   1.0     0.924924     0.924953     0.460442  Biso 1.000000     H
    H   1.0     0.689324     0.460385     0.925152  Biso 1.000000     H
    H   1.0     0.460096     0.689157     0.925342  Biso 1.000000     H
    H   1.0     0.925657     0.925589     0.689195  Biso 1.000000     H
    C   1.0     0.113525     0.418459     0.354627  Biso 1.000000     C
    C   1.0     0.075319     0.489986     0.359431  Biso 1.000000     C
    C   1.0     0.037891     0.494318     0.429922  Biso 1.000000     C
    C   1.0     0.418370     0.113564     0.113542  Biso 1.000000     C
    C   1.0     0.489972     0.075451     0.075439  Biso 1.000000     C
    C   1.0     0.494319     0.037962     0.037952  Biso 1.000000     C
    C   1.0     0.354434     0.113451     0.113425  Biso 1.000000     C
    C   1.0     0.359282     0.075178     0.075171  Biso 1.000000     C
    C   1.0     0.429843     0.037832     0.037830  Biso 1.000000     C
    C   1.0     0.113510     0.354631     0.418474  Biso 1.000000     C
    C   1.0     0.075293     0.359454     0.490009  Biso 1.000000     C
    C   1.0     0.037879     0.429938     0.494323  Biso 1.000000     C
    C   1.0     0.113238     0.354552     0.113372  Biso 1.000000     C
    C   1.0     0.075001     0.359422     0.075085  Biso 1.000000     C
    C   1.0     0.037752     0.429913     0.037779  Biso 1.000000     C
    C   1.0     0.418640     0.113509     0.354652  Biso 1.000000     C
    C   1.0     0.490196     0.075256     0.359448  Biso 1.000000     C
    C   1.0     0.494419     0.037859     0.429927  Biso 1.000000     C
    C   1.0     0.354676     0.113496     0.418536  Biso 1.000000     C
    C   1.0     0.359395     0.075311     0.490057  Biso 1.000000     C
    C   1.0     0.429903     0.037894     0.494357  Biso 1.000000     C
    C   1.0     0.113436     0.418420     0.113498  Biso 1.000000     C
    C   1.0     0.075427     0.489951     0.075424  Biso 1.000000     C
    C   1.0     0.037945     0.494315     0.037942  Biso 1.000000     C
    C   1.0     0.113439     0.113505     0.418423  Biso 1.000000     C
    C   1.0     0.075418     0.075424     0.489965  Biso 1.000000     C
    C   1.0     0.037937     0.037947     0.494318  Biso 1.000000     C
    C   1.0     0.418642     0.354656     0.113491  Biso 1.000000     C
    C   1.0     0.490199     0.359469     0.075238  Biso 1.000000     C
    C   1.0     0.494421     0.429941     0.037847  Biso 1.000000     C
    C   1.0     0.354681     0.418518     0.113500  Biso 1.000000     C
    C   1.0     0.359399     0.490031     0.075323  Biso 1.000000     C
    C   1.0     0.429907     0.494347     0.037899  Biso 1.000000     C
    C   1.0     0.113237     0.113403     0.354537  Biso 1.000000     C
    C   1.0     0.075015     0.075108     0.359397  Biso 1.000000     C
    C   1.0     0.037761     0.037791     0.429898  Biso 1.000000     C
    C   1.0     0.581373     0.886524     0.645353  Biso 1.000000     C
    C   1.0     0.509817     0.924769     0.640557  Biso 1.000000     C
    C   1.0     0.505593     0.962167     0.570078  Biso 1.000000     C
    C   1.0     0.886578     0.581607     0.886506  Biso 1.000000     C
    C   1.0     0.924585     0.510076     0.924580  Biso 1.000000     C
    C   1.0     0.962069     0.505712     0.962061  Biso 1.000000     C
    C   1.0     0.886777     0.645475     0.886630  Biso 1.000000     C
    C   1.0     0.925010     0.640605     0.924921  Biso 1.000000     C
    C   1.0     0.962260     0.570114     0.962225  Biso 1.000000     C
    C   1.0     0.645336     0.886534     0.581468  Biso 1.000000     C
    C   1.0     0.640618     0.924717     0.509947  Biso 1.000000     C
    C   1.0     0.570109     0.962137     0.505647  Biso 1.000000     C
    C   1.0     0.645579     0.886577     0.886578  Biso 1.000000     C
    C   1.0     0.640731     0.924848     0.924833  Biso 1.000000     C
    C   1.0     0.570170     0.962192     0.962176  Biso 1.000000     C
    C   1.0     0.886488     0.581568     0.645377  Biso 1.000000     C
    C   1.0     0.924694     0.510041     0.640573  Biso 1.000000     C
    C   1.0     0.962123     0.505709     0.570082  Biso 1.000000     C
    C   1.0     0.886505     0.645396     0.581530  Biso 1.000000     C
    C   1.0     0.924718     0.640573     0.509996  Biso 1.000000     C
    C   1.0     0.962132     0.570089     0.505681  Biso 1.000000     C
    C   1.0     0.581642     0.886461     0.886464  Biso 1.000000     C
    C   1.0     0.510041     0.924577     0.924564  Biso 1.000000     C
    C   1.0     0.505693     0.962066     0.962051  Biso 1.000000     C
    C   1.0     0.886568     0.886527     0.581581  Biso 1.000000     C
    C   1.0     0.924596     0.924602     0.510040  Biso 1.000000     C
    C   1.0     0.962075     0.962081     0.505686  Biso 1.000000     C
    C   1.0     0.645331     0.581509     0.886507  Biso 1.000000     C
    C   1.0     0.640613     0.509995     0.924683  Biso 1.000000     C
    C   1.0     0.570106     0.505680     0.962110  Biso 1.000000     C
    C   1.0     0.581371     0.645371     0.886519  Biso 1.000000     C
    C   1.0     0.509814     0.640557     0.924765  Biso 1.000000     C
    C   1.0     0.505591     0.570086     0.962157  Biso 1.000000     C
    C   1.0     0.886772     0.886626     0.645468  Biso 1.000000     C
    C   1.0     0.924998     0.924919     0.640607  Biso 1.000000     C
    C   1.0     0.962249     0.962239     0.570106  Biso 1.000000     C
    N   1.0     0.155345     0.394524     0.295049  Biso 1.000000     N
    N   1.0     0.394469     0.155345     0.155330  Biso 1.000000     N
    N   1.0     0.294815     0.155179     0.155165  Biso 1.000000     N
    N   1.0     0.155328     0.295058     0.394543  Biso 1.000000     N
    N   1.0     0.154872     0.295002     0.155114  Biso 1.000000     N
    N   1.0     0.394759     0.155338     0.295105  Biso 1.000000     N
    N   1.0     0.295101     0.155312     0.394649  Biso 1.000000     N
    N   1.0     0.155183     0.394531     0.155271  Biso 1.000000     N
    N   1.0     0.155173     0.155294     0.394535  Biso 1.000000     N
    N   1.0     0.394757     0.295113     0.155308  Biso 1.000000     N
    N   1.0     0.295105     0.394622     0.155308  Biso 1.000000     N
    N   1.0     0.154869     0.155159     0.294979  Biso 1.000000     N
    N   1.0     0.605254     0.844686     0.704900  Biso 1.000000     N
    N   1.0     0.844827     0.605495     0.844736  Biso 1.000000     N
    N   1.0     0.845138     0.705026     0.844893  Biso 1.000000     N
    N   1.0     0.704910     0.844714     0.605356  Biso 1.000000     N
    N   1.0     0.705197     0.844848     0.844838  Biso 1.000000     N
    N   1.0     0.844666     0.605502     0.704955  Biso 1.000000     N
    N   1.0     0.844681     0.704969     0.605461  Biso 1.000000     N
    N   1.0     0.605544     0.844683     0.844673  Biso 1.000000     N
    N   1.0     0.844843     0.844729     0.605469  Biso 1.000000     N
    N   1.0     0.704907     0.605405     0.844695  Biso 1.000000     N
    N   1.0     0.605256     0.704914     0.844693  Biso 1.000000     N
    N   1.0     0.845147     0.844865     0.705026  Biso 1.000000     N
    N   1.0     0.179733     0.320419     0.320420  Biso 1.000000     N
    N   1.0     0.320287     0.179640     0.179606  Biso 1.000000     N
    N   1.0     0.179366     0.320434     0.179568  Biso 1.000000     N
    N   1.0     0.320564     0.179705     0.320528  Biso 1.000000     N
    N   1.0     0.179364     0.179600     0.320422  Biso 1.000000     N
    N   1.0     0.320561     0.320517     0.179697  Biso 1.000000     N
    N   1.0     0.679449     0.820317     0.679477  Biso 1.000000     N
    N   1.0     0.820645     0.679592     0.820439  Biso 1.000000     N
    N   1.0     0.679725     0.820387     0.820397  Biso 1.000000     N
    N   1.0     0.820282     0.679607     0.679584  Biso 1.000000     N
    N   1.0     0.820652     0.820423     0.679582  Biso 1.000000     N
    N   1.0     0.679451     0.679510     0.820304  Biso 1.000000     N
    O   1.0     0.000011     0.564008     0.435985  Biso 1.000000     O
    O   1.0     0.564084     0.000134     0.000136  Biso 1.000000     O
    O   1.0     0.435934    -0.000134    -0.000136  Biso 1.000000     O
    O   1.0    -0.000017     0.436019     0.564020  Biso 1.000000     O
    O   1.0    -0.000189     0.436012    -0.000192  Biso 1.000000     O
    O   1.0     0.564136    -0.000042     0.435967  Biso 1.000000     O
    O   1.0     0.435878     0.000053     0.564038  Biso 1.000000     O
    O   1.0     0.000187     0.564004     0.000192  Biso 1.000000     O
    O   1.0     0.000181     0.000179     0.564016  Biso 1.000000     O
    O   1.0     0.564136     0.435997    -0.000061  Biso 1.000000     O
    O   1.0     0.435881     0.564018     0.000060  Biso 1.000000     O
    O   1.0    -0.000185    -0.000168     0.435988  Biso 1.000000     O
   Cl   1.0     0.143674     0.569014     0.144013  Biso 1.000000    Cl
   Cl   1.0     0.569256     0.143732     0.143698  Biso 1.000000    Cl
   Cl   1.0     0.143352     0.143416     0.143377  Biso 1.000000    Cl
   Cl   1.0     0.143646     0.144029     0.569056  Biso 1.000000    Cl
   Cl   1.0     0.430757     0.856295     0.856306  Biso 1.000000    Cl
   Cl   1.0     0.856339     0.431013     0.855991  Biso 1.000000    Cl
   Cl   1.0     0.856661     0.856611     0.856627  Biso 1.000000    Cl
   Cl   1.0     0.856367     0.855998     0.430948  Biso 1.000000    Cl
   Zn   1.0     0.183831     0.448816     0.183867  Biso 1.000000    Zn
   Zn   1.0     0.448924     0.183909     0.183875  Biso 1.000000    Zn
   Zn   1.0     0.183394     0.183704     0.183664  Biso 1.000000    Zn
   Zn   1.0     0.183813     0.183888     0.448834  Biso 1.000000    Zn
   Zn   1.0     0.551089     0.816118     0.816129  Biso 1.000000    Zn
   Zn   1.0     0.816181     0.551210     0.816138  Biso 1.000000    Zn
   Zn   1.0     0.816618     0.816324     0.816340  Biso 1.000000    Zn
   Zn   1.0     0.816199     0.816140     0.551171  Biso 1.000000    Zn
   Zn   1.0     0.249943     0.250055     0.250041  Biso 1.000000    Zn
   Zn   1.0     0.750070     0.749970     0.749963  Biso 1.000000    Zn
