#======================================================================

# CRYSTAL DATA

#----------------------------------------------------------------------

data_VESTA_phase_1


_pd_phase_name                         MOF
_cell_length_a                         18.92300
_cell_length_b                         18.94900
_cell_length_c                         18.94700
_cell_angle_alpha                      90.00000
_cell_angle_beta                       89.99800
_cell_angle_gamma                      89.99900
_symmetry_space_group_name_H-M         "P 1"
_symmetry_Int_Tables_number            1

loop_
_symmetry_equiv_pos_as_xyz
   "x, y, z"

loop_
   _atom_site_label
   _atom_site_occupancy
   _atom_site_fract_x
   _atom_site_fract_y
   _atom_site_fract_z
   _atom_site_adp_type
   _atom_site_B_iso_or_equiv
   _atom_site_type_symbol
    H   1.0     0.864629     0.717693     0.556631  Biso 1.000000     H
    H   1.0     0.134934     0.281958     0.556857  Biso 1.000000     H
    H   1.0     0.135295     0.717568     0.443534  Biso 1.000000     H
    H   1.0     0.865150     0.281754     0.443020  Biso 1.000000     H
    H   1.0     0.555922     0.864412     0.717110  Biso 1.000000     H
    H   1.0     0.555366     0.136114     0.283552  Biso 1.000000     H
    H   1.0     0.444578     0.136258     0.716422  Biso 1.000000     H
    H   1.0     0.444310     0.863888     0.283373  Biso 1.000000     H
    H   1.0     0.717712     0.556408     0.864515  Biso 1.000000     H
    H   1.0     0.281591     0.556970     0.134940  Biso 1.000000     H
    H   1.0     0.717781     0.443432     0.135592  Biso 1.000000     H
    H   1.0     0.281865     0.443196     0.864815  Biso 1.000000     H
    H   1.0     0.717583     0.864043     0.443759  Biso 1.000000     H
    H   1.0     0.282796     0.136381     0.444065  Biso 1.000000     H
    H   1.0     0.717929     0.135635     0.556497  Biso 1.000000     H
    H   1.0     0.282868     0.863646     0.555833  Biso 1.000000     H
    H   1.0     0.864764     0.556626     0.282219  Biso 1.000000     H
    H   1.0     0.135255     0.556738     0.717860  Biso 1.000000     H
    H   1.0     0.134788     0.443088     0.281780  Biso 1.000000     H
    H   1.0     0.865188     0.443189     0.718109  Biso 1.000000     H
    H   1.0     0.556333     0.717552     0.135207  Biso 1.000000     H
    H   1.0     0.556352     0.282571     0.864693  Biso 1.000000     H
    H   1.0     0.443532     0.717765     0.865043  Biso 1.000000     H
    H   1.0     0.443520     0.282343     0.134956  Biso 1.000000     H
    H   1.0     0.136547     0.283548     0.444488  Biso 1.000000     H
    H   1.0     0.863857     0.716843     0.444258  Biso 1.000000     H
    H   1.0     0.863462     0.283707     0.555344  Biso 1.000000     H
    H   1.0     0.136054     0.717003     0.555870  Biso 1.000000     H
    H   1.0     0.443069     0.134562     0.281859  Biso 1.000000     H
    H   1.0     0.443642     0.864903     0.717500  Biso 1.000000     H
    H   1.0     0.556303     0.864701     0.282601  Biso 1.000000     H
    H   1.0     0.556571     0.135154     0.717633  Biso 1.000000     H
    H   1.0     0.282891     0.444172     0.136108  Biso 1.000000     H
    H   1.0     0.717762     0.443617     0.864447  Biso 1.000000     H
    H   1.0     0.282870     0.555977     0.863790  Biso 1.000000     H
    H   1.0     0.717425     0.556188     0.135867  Biso 1.000000     H
    H   1.0     0.281480     0.135076     0.557103  Biso 1.000000     H
    H   1.0     0.718125     0.864550     0.556819  Biso 1.000000     H
    H   1.0     0.281148     0.865246     0.442679  Biso 1.000000     H
    H   1.0     0.718005     0.135474     0.443350  Biso 1.000000     H
    H   1.0     0.136459     0.444532     0.716526  Biso 1.000000     H
    H   1.0     0.863444     0.444446     0.283476  Biso 1.000000     H
    H   1.0     0.863938     0.555762     0.716966  Biso 1.000000     H
    H   1.0     0.136021     0.555665     0.283168  Biso 1.000000     H
    H   1.0     0.444235     0.283113     0.864166  Biso 1.000000     H
    H   1.0     0.444161     0.716846     0.135903  Biso 1.000000     H
    H   1.0     0.555866     0.282891     0.135603  Biso 1.000000     H
    H   1.0     0.555906     0.717063     0.864471  Biso 1.000000     H
    H   1.0     0.768301     0.768262     0.608073  Biso 1.000000     H
    H   1.0     0.231820     0.231846     0.607823  Biso 1.000000     H
    H   1.0     0.231542     0.768239     0.392028  Biso 1.000000     H
    H   1.0     0.768069     0.231789     0.392225  Biso 1.000000     H
    H   1.0     0.607941     0.768541     0.768695  Biso 1.000000     H
    H   1.0     0.607689     0.231552     0.231629  Biso 1.000000     H
    H   1.0     0.391999     0.231396     0.768618  Biso 1.000000     H
    H   1.0     0.391681     0.768757     0.231186  Biso 1.000000     H
    H   1.0     0.768281     0.607902     0.768416  Biso 1.000000     H
    H   1.0     0.231566     0.607902     0.231661  Biso 1.000000     H
    H   1.0     0.768335     0.391881     0.231615  Biso 1.000000     H
    H   1.0     0.231637     0.392013     0.768358  Biso 1.000000     H
    H   1.0     0.768356     0.768342     0.392011  Biso 1.000000     H
    H   1.0     0.231437     0.231533     0.391728  Biso 1.000000     H
    H   1.0     0.768637     0.231583     0.608162  Biso 1.000000     H
    H   1.0     0.231670     0.768428     0.608013  Biso 1.000000     H
    H   1.0     0.768306     0.607966     0.231674  Biso 1.000000     H
    H   1.0     0.231708     0.608075     0.768373  Biso 1.000000     H
    H   1.0     0.231756     0.392157     0.231639  Biso 1.000000     H
    H   1.0     0.768308     0.392193     0.768265  Biso 1.000000     H
    H   1.0     0.607839     0.768466     0.231551  Biso 1.000000     H
    H   1.0     0.608173     0.231374     0.768689  Biso 1.000000     H
    H   1.0     0.392376     0.768367     0.768287  Biso 1.000000     H
    H   1.0     0.392160     0.231598     0.231463  Biso 1.000000     H
    C   1.0     0.873997     0.672609     0.590480  Biso 1.000000     C
    C   1.0     0.125788     0.327217     0.590535  Biso 1.000000     C
    C   1.0     0.125921     0.672509     0.409657  Biso 1.000000     C
    C   1.0     0.874244     0.327052     0.409380  Biso 1.000000     C
    C   1.0     0.590273     0.873987     0.672419  Biso 1.000000     C
    C   1.0     0.589821     0.126319     0.328114  Biso 1.000000     C
    C   1.0     0.410049     0.126360     0.671941  Biso 1.000000     C
    C   1.0     0.409735     0.873768     0.327820  Biso 1.000000     C
    C   1.0     0.672669     0.590343     0.874048  Biso 1.000000     C
    C   1.0     0.326880     0.590664     0.125695  Biso 1.000000     C
    C   1.0     0.672700     0.409544     0.126072  Biso 1.000000     C
    C   1.0     0.327083     0.409435     0.874156  Biso 1.000000     C
    C   1.0     0.672635     0.873783     0.409748  Biso 1.000000     C
    C   1.0     0.327442     0.126385     0.409739  Biso 1.000000     C
    C   1.0     0.672978     0.126007     0.590535  Biso 1.000000     C
    C   1.0     0.327637     0.873587     0.590018  Biso 1.000000     C
    C   1.0     0.874066     0.590440     0.327344  Biso 1.000000     C
    C   1.0     0.125938     0.590546     0.672733  Biso 1.000000     C
    C   1.0     0.125702     0.409437     0.327075  Biso 1.000000     C
    C   1.0     0.874302     0.409532     0.672825  Biso 1.000000     C
    C   1.0     0.590366     0.672575     0.125856  Biso 1.000000     C
    C   1.0     0.590446     0.327480     0.874133  Biso 1.000000     C
    C   1.0     0.409595     0.672686     0.874249  Biso 1.000000     C
    C   1.0     0.409574     0.327407     0.125707  Biso 1.000000     C
    C   1.0     0.126536     0.328016     0.410024  Biso 1.000000     C
    C   1.0     0.873635     0.672187     0.409969  Biso 1.000000     C
    C   1.0     0.873485     0.328139     0.589848  Biso 1.000000     C
    C   1.0     0.126311     0.672322     0.590138  Biso 1.000000     C
    C   1.0     0.409222     0.125502     0.327045  Biso 1.000000     C
    C   1.0     0.409668     0.874206     0.672460  Biso 1.000000     C
    C   1.0     0.590360     0.874116     0.327554  Biso 1.000000     C
    C   1.0     0.590671     0.125766     0.672708  Biso 1.000000     C
    C   1.0     0.327637     0.409937     0.126273  Biso 1.000000     C
    C   1.0     0.672775     0.409616     0.874008  Biso 1.000000     C
    C   1.0     0.327629     0.590190     0.873646  Biso 1.000000     C
    C   1.0     0.672537     0.590283     0.126179  Biso 1.000000     C
    C   1.0     0.326884     0.125806     0.590647  Biso 1.000000     C
    C   1.0     0.672981     0.874033     0.590646  Biso 1.000000     C
    C   1.0     0.326552     0.874404     0.409106  Biso 1.000000     C
    C   1.0     0.672758     0.126028     0.409649  Biso 1.000000     C
    C   1.0     0.126519     0.410105     0.672012  Biso 1.000000     C
    C   1.0     0.873428     0.409999     0.327964  Biso 1.000000     C
    C   1.0     0.873662     0.590030     0.672279  Biso 1.000000     C
    C   1.0     0.126269     0.589947     0.327838  Biso 1.000000     C
    C   1.0     0.409869     0.327760     0.873856  Biso 1.000000     C
    C   1.0     0.409769     0.672235     0.126150  Biso 1.000000     C
    C   1.0     0.590128     0.327651     0.126066  Biso 1.000000     C
    C   1.0     0.590158     0.672302     0.874038  Biso 1.000000     C
    C   1.0     0.776149     0.684709     0.684868  Biso 1.000000     C
    C   1.0     0.837844     0.651621     0.651734  Biso 1.000000     C
    C   1.0     0.223840     0.315263     0.684747  Biso 1.000000     C
    C   1.0     0.162161     0.348372     0.651600  Biso 1.000000     C
    C   1.0     0.223671     0.684726     0.315189  Biso 1.000000     C
    C   1.0     0.162077     0.651535     0.348402  Biso 1.000000     C
    C   1.0     0.776072     0.315187     0.315280  Biso 1.000000     C
    C   1.0     0.837810     0.348248     0.348366  Biso 1.000000     C
    C   1.0     0.684761     0.776251     0.685003  Biso 1.000000     C
    C   1.0     0.651843     0.838011     0.651915  Biso 1.000000     C
    C   1.0     0.684512     0.223812     0.315313  Biso 1.000000     C
    C   1.0     0.651518     0.162133     0.348476  Biso 1.000000     C
    C   1.0     0.315274     0.223760     0.684835  Biso 1.000000     C
    C   1.0     0.348232     0.162039     0.651708  Biso 1.000000     C
    C   1.0     0.314981     0.776338     0.314997  Biso 1.000000     C
    C   1.0     0.347912     0.838093     0.348082  Biso 1.000000     C
    C   1.0     0.684722     0.684815     0.776380  Biso 1.000000     C
    C   1.0     0.651674     0.651668     0.838044  Biso 1.000000     C
    C   1.0     0.315033     0.684905     0.223614  Biso 1.000000     C
    C   1.0     0.348012     0.651845     0.161865  Biso 1.000000     C
    C   1.0     0.684599     0.315146     0.223824  Biso 1.000000     C
    C   1.0     0.651664     0.348221     0.162060  Biso 1.000000     C
    C   1.0     0.315232     0.315136     0.776286  Biso 1.000000     C
    C   1.0     0.348208     0.348229     0.838020  Biso 1.000000     C
    C   1.0     0.684714     0.776249     0.315180  Biso 1.000000     C
    C   1.0     0.651759     0.837991     0.348269  Biso 1.000000     C
    C   1.0     0.315181     0.223734     0.314992  Biso 1.000000     C
    C   1.0     0.348094     0.161949     0.348041  Biso 1.000000     C
    C   1.0     0.685004     0.223666     0.685010  Biso 1.000000     C
    C   1.0     0.652090     0.161872     0.651981  Biso 1.000000     C
    C   1.0     0.315401     0.776245     0.684757  Biso 1.000000     C
    C   1.0     0.348412     0.837921     0.651604  Biso 1.000000     C
    C   1.0     0.776162     0.684763     0.315238  Biso 1.000000     C
    C   1.0     0.837849     0.651640     0.348355  Biso 1.000000     C
    C   1.0     0.223879     0.684837     0.684776  Biso 1.000000     C
    C   1.0     0.162122     0.651770     0.651734  Biso 1.000000     C
    C   1.0     0.223796     0.315276     0.315114  Biso 1.000000     C
    C   1.0     0.162100     0.348389     0.348224  Biso 1.000000     C
    C   1.0     0.776302     0.315287     0.684820  Biso 1.000000     C
    C   1.0     0.837907     0.348495     0.651643  Biso 1.000000     C
    C   1.0     0.684727     0.684858     0.223742  Biso 1.000000     C
    C   1.0     0.651720     0.651763     0.162023  Biso 1.000000     C
    C   1.0     0.684901     0.315138     0.776355  Biso 1.000000     C
    C   1.0     0.651919     0.348186     0.838105  Biso 1.000000     C
    C   1.0     0.315373     0.684874     0.776213  Biso 1.000000     C
    C   1.0     0.348362     0.651776     0.837937  Biso 1.000000     C
    C   1.0     0.315275     0.315212     0.223655  Biso 1.000000     C
    C   1.0     0.348333     0.348348     0.161993  Biso 1.000000     C
    C   1.0     0.745322     0.745317     0.655516  Biso 1.000000     C
    C   1.0     0.254731     0.254718     0.655334  Biso 1.000000     C
    C   1.0     0.254484     0.745339     0.344544  Biso 1.000000     C
    C   1.0     0.745130     0.254692     0.344742  Biso 1.000000     C
    C   1.0     0.655311     0.745444     0.745600  Biso 1.000000     C
    C   1.0     0.655105     0.254595     0.254680  Biso 1.000000     C
    C   1.0     0.344661     0.254521     0.745489  Biso 1.000000     C
    C   1.0     0.344378     0.745590     0.254344  Biso 1.000000     C
    C   1.0     0.745286     0.655323     0.745449  Biso 1.000000     C
    C   1.0     0.254509     0.655372     0.254581  Biso 1.000000     C
    C   1.0     0.745245     0.344549     0.254672  Biso 1.000000     C
    C   1.0     0.254663     0.344619     0.745361  Biso 1.000000     C
    C   1.0     0.745317     0.745349     0.344620  Biso 1.000000     C
    C   1.0     0.254562     0.254613     0.344420  Biso 1.000000     C
    C   1.0     0.745559     0.254610     0.655520  Biso 1.000000     C
    C   1.0     0.254747     0.745397     0.655367  Biso 1.000000     C
    C   1.0     0.745305     0.655381     0.254652  Biso 1.000000     C
    C   1.0     0.254741     0.655455     0.745358  Biso 1.000000     C
    C   1.0     0.254703     0.344696     0.254572  Biso 1.000000     C
    C   1.0     0.745417     0.344679     0.745386  Biso 1.000000     C
    C   1.0     0.655275     0.745439     0.254576  Biso 1.000000     C
    C   1.0     0.655559     0.254458     0.745617  Biso 1.000000     C
    C   1.0     0.344881     0.745400     0.745324  Biso 1.000000     C
    C   1.0     0.344692     0.254597     0.254454  Biso 1.000000     C
    N   1.0     0.926874     0.627045     0.576248  Biso 1.000000     N
    N   1.0     0.072980     0.372848     0.576259  Biso 1.000000     N
    N   1.0     0.073084     0.626906     0.423911  Biso 1.000000     N
    N   1.0     0.927052     0.372685     0.423641  Biso 1.000000     N
    N   1.0     0.576387     0.926919     0.626884  Biso 1.000000     N
    N   1.0     0.575832     0.073353     0.373566  Biso 1.000000     N
    N   1.0     0.424024     0.073369     0.626511  Biso 1.000000     N
    N   1.0     0.423602     0.926756     0.373300  Biso 1.000000     N
    N   1.0     0.627146     0.576113     0.926957  Biso 1.000000     N
    N   1.0     0.372488     0.576359     0.072884  Biso 1.000000     N
    N   1.0     0.627220     0.423782     0.073132  Biso 1.000000     N
    N   1.0     0.372639     0.423716     0.927020  Biso 1.000000     N
    N   1.0     0.627276     0.926784     0.424053  Biso 1.000000     N
    N   1.0     0.372749     0.073253     0.423797  Biso 1.000000     N
    N   1.0     0.627541     0.073016     0.576383  Biso 1.000000     N
    N   1.0     0.372960     0.926626     0.575743  Biso 1.000000     N
    N   1.0     0.926911     0.576204     0.372946  Biso 1.000000     N
    N   1.0     0.073048     0.576337     0.627174  Biso 1.000000     N
    N   1.0     0.072918     0.423701     0.372739  Biso 1.000000     N
    N   1.0     0.927056     0.423843     0.627143  Biso 1.000000     N
    N   1.0     0.576275     0.626984     0.073031  Biso 1.000000     N
    N   1.0     0.576369     0.373038     0.926993  Biso 1.000000     N
    N   1.0     0.423669     0.627084     0.927069  Biso 1.000000     N
    N   1.0     0.423713     0.373029     0.072927  Biso 1.000000     N
    N   1.0     0.073471     0.373444     0.424037  Biso 1.000000     N
    N   1.0     0.926639     0.626699     0.424019  Biso 1.000000     N
    N   1.0     0.926524     0.373596     0.575831  Biso 1.000000     N
    N   1.0     0.073302     0.626837     0.576110  Biso 1.000000     N
    N   1.0     0.423296     0.072732     0.372701  Biso 1.000000     N
    N   1.0     0.423849     0.927006     0.626887  Biso 1.000000     N
    N   1.0     0.576214     0.926971     0.373077  Biso 1.000000     N
    N   1.0     0.576650     0.072896     0.627148  Biso 1.000000     N
    N   1.0     0.373078     0.424033     0.073253  Biso 1.000000     N
    N   1.0     0.627257     0.423790     0.926937  Biso 1.000000     N
    N   1.0     0.373034     0.576064     0.926686  Biso 1.000000     N
    N   1.0     0.627076     0.576138     0.073191  Biso 1.000000     N
    N   1.0     0.372376     0.072986     0.576129  Biso 1.000000     N
    N   1.0     0.627543     0.926991     0.576389  Biso 1.000000     N
    N   1.0     0.372113     0.927228     0.423451  Biso 1.000000     N
    N   1.0     0.627329     0.073136     0.424099  Biso 1.000000     N
    N   1.0     0.073465     0.424106     0.626566  Biso 1.000000     N
    N   1.0     0.926522     0.423975     0.373373  Biso 1.000000     N
    N   1.0     0.926661     0.576010     0.626775  Biso 1.000000     N
    N   1.0     0.073322     0.575870     0.373383  Biso 1.000000     N
    N   1.0     0.423841     0.373276     0.926784  Biso 1.000000     N
    N   1.0     0.423751     0.626751     0.073196  Biso 1.000000     N
    N   1.0     0.576165     0.373197     0.073162  Biso 1.000000     N
    N   1.0     0.576125     0.626735     0.926902  Biso 1.000000     N
   Cu   1.0    -0.000022     0.627057     0.500058  Biso 1.000000    Cu
   Cu   1.0     0.000015     0.372953     0.499960  Biso 1.000000    Cu
   Cu   1.0     0.500145     0.000050     0.627022  Biso 1.000000    Cu
   Cu   1.0     0.499828    -0.000057     0.372984  Biso 1.000000    Cu
   Cu   1.0     0.627393     0.499967     0.000045  Biso 1.000000    Cu
   Cu   1.0     0.372577     0.500030    -0.000046  Biso 1.000000    Cu
   Cu   1.0     0.627951    -0.000031     0.500157  Biso 1.000000    Cu
   Cu   1.0     0.372014     0.000019     0.499858  Biso 1.000000    Cu
   Cu   1.0    -0.000076     0.499953     0.372934  Biso 1.000000    Cu
   Cu   1.0     0.000065     0.500058     0.627091  Biso 1.000000    Cu
   Cu   1.0     0.499963     0.627015     0.000043  Biso 1.000000    Cu
   Cu   1.0     0.500023     0.372998    -0.000049  Biso 1.000000    Cu
