#======================================================================

# CRYSTAL DATA

#----------------------------------------------------------------------

data_VESTA_phase_1


_pd_phase_name                         MOF
_cell_length_a                         15.74300
_cell_length_b                         15.75000
_cell_length_c                         20.00500
_cell_angle_alpha                      90.00100
_cell_angle_beta                       90.00000
_cell_angle_gamma                      90.00800
_symmetry_space_group_name_H-M         "P 1"
_symmetry_Int_Tables_number            1

loop_
_symmetry_equiv_pos_as_xyz
   "x, y, z"

loop_
   _atom_site_label
   _atom_site_occupancy
   _atom_site_fract_x
   _atom_site_fract_y
   _atom_site_fract_z
   _atom_site_adp_type
   _atom_site_B_iso_or_equiv
   _atom_site_type_symbol
    H   1.0     0.153934     0.959691     0.736556  Biso 1.000000     H
    H   1.0     0.136694     0.941724     0.850366  Biso 1.000000     H
    H   1.0     0.210140     0.055708     0.059523  Biso 1.000000     H
    H   1.0     0.356827     0.834959     0.115818  Biso 1.000000     H
    H   1.0     0.345223     0.537944     0.736493  Biso 1.000000     H
    H   1.0     0.362261     0.555314     0.850348  Biso 1.000000     H
    H   1.0     0.288923     0.440495     0.060010  Biso 1.000000     H
    H   1.0     0.141262     0.660809     0.115680  Biso 1.000000     H
    H   1.0     0.536949     0.154763     0.237335  Biso 1.000000     H
    H   1.0     0.560478     0.131180     0.349721  Biso 1.000000     H
    H   1.0     0.441289     0.206745     0.560818  Biso 1.000000     H
    H   1.0     0.661591     0.355238     0.615377  Biso 1.000000     H
    H   1.0     0.960303     0.342158     0.236905  Biso 1.000000     H
    H   1.0     0.936647     0.365493     0.349387  Biso 1.000000     H
    H   1.0     0.055909     0.290073     0.561103  Biso 1.000000     H
    H   1.0     0.836084     0.140463     0.614972  Biso 1.000000     H
    H   1.0     0.844937     0.458894     0.763571  Biso 1.000000     H
    H   1.0     0.861514     0.441332     0.649731  Biso 1.000000     H
    H   1.0     0.788904     0.555647     0.440131  Biso 1.000000     H
    H   1.0     0.640749     0.335574     0.384560  Biso 1.000000     H
    H   1.0     0.653251     0.037108     0.763393  Biso 1.000000     H
    H   1.0     0.636144     0.054745     0.649590  Biso 1.000000     H
    H   1.0     0.709109     0.940684     0.439832  Biso 1.000000     H
    H   1.0     0.856369     0.161446     0.384433  Biso 1.000000     H
    H   1.0     0.460722     0.654331     0.262939  Biso 1.000000     H
    H   1.0     0.437786     0.631514     0.150342  Biso 1.000000     H
    H   1.0     0.556123     0.706569     0.939288  Biso 1.000000     H
    H   1.0     0.336011     0.855204     0.884613  Biso 1.000000     H
    H   1.0     0.037587     0.842465     0.263163  Biso 1.000000     H
    H   1.0     0.061685     0.866039     0.150721  Biso 1.000000     H
    H   1.0     0.941781     0.790289     0.938832  Biso 1.000000     H
    H   1.0     0.161746     0.641233     0.884407  Biso 1.000000     H
    H   1.0     0.845269     0.037982     0.263475  Biso 1.000000     H
    H   1.0     0.862232     0.055264     0.149607  Biso 1.000000     H
    H   1.0     0.788898     0.940488     0.939985  Biso 1.000000     H
    H   1.0     0.641267     0.160841     0.884295  Biso 1.000000     H
    H   1.0     0.653897     0.459691     0.263424  Biso 1.000000     H
    H   1.0     0.636575     0.441649     0.149632  Biso 1.000000     H
    H   1.0     0.710037     0.555701     0.940431  Biso 1.000000     H
    H   1.0     0.856821     0.335018     0.884202  Biso 1.000000     H
    H   1.0     0.460313     0.842161     0.763072  Biso 1.000000     H
    H   1.0     0.436725     0.865437     0.650576  Biso 1.000000     H
    H   1.0     0.555889     0.790007     0.438906  Biso 1.000000     H
    H   1.0     0.336052     0.640467     0.384999  Biso 1.000000     H
    H   1.0     0.036879     0.654799     0.762629  Biso 1.000000     H
    H   1.0     0.060467     0.631141     0.650266  Biso 1.000000     H
    H   1.0     0.941254     0.706753     0.439162  Biso 1.000000     H
    H   1.0     0.161618     0.855177     0.384586  Biso 1.000000     H
    H   1.0     0.153234     0.537103     0.236591  Biso 1.000000     H
    H   1.0     0.136171     0.554684     0.350405  Biso 1.000000     H
    H   1.0     0.209068     0.440704     0.560137  Biso 1.000000     H
    H   1.0     0.356360     0.661414     0.615541  Biso 1.000000     H
    H   1.0     0.345012     0.958844     0.236414  Biso 1.000000     H
    H   1.0     0.361646     0.941237     0.350231  Biso 1.000000     H
    H   1.0     0.288986     0.055674     0.559886  Biso 1.000000     H
    H   1.0     0.140736     0.835604     0.615379  Biso 1.000000     H
    H   1.0     0.537563     0.342499     0.736799  Biso 1.000000     H
    H   1.0     0.561585     0.366002     0.849257  Biso 1.000000     H
    H   1.0     0.441790     0.290239     0.061136  Biso 1.000000     H
    H   1.0     0.661782     0.141272     0.115580  Biso 1.000000     H
    H   1.0     0.960771     0.154392     0.737065  Biso 1.000000     H
    H   1.0     0.937759     0.131486     0.849638  Biso 1.000000     H
    H   1.0     0.056147     0.206568     0.060678  Biso 1.000000     H
    H   1.0     0.836013     0.355192     0.115382  Biso 1.000000     H
    H   1.0     0.094306     0.094441     0.555872  Biso 1.000000     H
    H   1.0     0.402959     0.401916     0.556005  Biso 1.000000     H
    H   1.0     0.403864     0.094562     0.055995  Biso 1.000000     H
    H   1.0     0.094780     0.401567     0.056022  Biso 1.000000     H
    H   1.0     0.903829     0.594570     0.943990  Biso 1.000000     H
    H   1.0     0.594743     0.901581     0.943965  Biso 1.000000     H
    H   1.0     0.594261     0.594390     0.444120  Biso 1.000000     H
    H   1.0     0.902965     0.901904     0.443957  Biso 1.000000     H
    C   1.0     0.116849     0.008298     0.710962  Biso 1.000000     C
    C   1.0     0.131607     0.022168     0.642796  Biso 1.000000     C
    C   1.0     0.086327     0.986741     0.861171  Biso 1.000000     C
    C   1.0     0.191334     0.968510     0.605104  Biso 1.000000     C
    C   1.0     0.237244     0.992865     0.066306  Biso 1.000000     C
    C   1.0     0.310606     0.879929     0.096553  Biso 1.000000     C
    C   1.0     0.381902     0.489079     0.710875  Biso 1.000000     C
    C   1.0     0.366484     0.474830     0.642832  Biso 1.000000     C
    C   1.0     0.412683     0.510335     0.861070  Biso 1.000000     C
    C   1.0     0.306415     0.528261     0.605257  Biso 1.000000     C
    C   1.0     0.261529     0.503214     0.066633  Biso 1.000000     C
    C   1.0     0.187674     0.615954     0.096535  Biso 1.000000     C
    C   1.0     0.489126     0.117068     0.211392  Biso 1.000000     C
    C   1.0     0.475448     0.132010     0.143237  Biso 1.000000     C
    C   1.0     0.513082     0.083145     0.360824  Biso 1.000000     C
    C   1.0     0.528903     0.192189     0.105804  Biso 1.000000     C
    C   1.0     0.503995     0.234338     0.567165  Biso 1.000000     C
    C   1.0     0.616754     0.308600     0.596535  Biso 1.000000     C
    C   1.0     0.008491     0.379596     0.211124  Biso 1.000000     C
    C   1.0     0.022467     0.364529     0.143012  Biso 1.000000     C
    C   1.0     0.984152     0.413371     0.360622  Biso 1.000000     C
    C   1.0     0.968957     0.304473     0.105475  Biso 1.000000     C
    C   1.0     0.993275     0.262195     0.567276  Biso 1.000000     C
    C   1.0     0.880763     0.187345     0.596276  Biso 1.000000     C
    C   1.0     0.881723     0.507768     0.789094  Biso 1.000000     C
    C   1.0     0.866837     0.521807     0.857219  Biso 1.000000     C
    C   1.0     0.911841     0.486382     0.638882  Biso 1.000000     C
    C   1.0     0.807086     0.468199     0.894919  Biso 1.000000     C
    C   1.0     0.761380     0.492976     0.433524  Biso 1.000000     C
    C   1.0     0.687287     0.380341     0.403659  Biso 1.000000     C
    C   1.0     0.616367     0.988355     0.789010  Biso 1.000000     C
    C   1.0     0.631534     0.974236     0.857091  Biso 1.000000     C
    C   1.0     0.585661     0.009822     0.638851  Biso 1.000000     C
    C   1.0     0.691462     0.027809     0.894704  Biso 1.000000     C
    C   1.0     0.736319     0.003527     0.433252  Biso 1.000000     C
    C   1.0     0.809978     0.116467     0.403453  Biso 1.000000     C
    C   1.0     0.508819     0.616886     0.288779  Biso 1.000000     C
    C   1.0     0.522444     0.631739     0.356964  Biso 1.000000     C
    C   1.0     0.485094     0.583427     0.139181  Biso 1.000000     C
    C   1.0     0.468848     0.691704     0.394490  Biso 1.000000     C
    C   1.0     0.493455     0.734230     0.932926  Biso 1.000000     C
    C   1.0     0.380796     0.808564     0.903507  Biso 1.000000     C
    C   1.0     0.989484     0.880023     0.288926  Biso 1.000000     C
    C   1.0     0.975307     0.864868     0.356996  Biso 1.000000     C
    C   1.0     0.014167     0.913886     0.139462  Biso 1.000000     C
    C   1.0     0.028613     0.804617     0.394472  Biso 1.000000     C
    C   1.0     0.004430     0.762509     0.932552  Biso 1.000000     C
    C   1.0     0.117004     0.687937     0.903268  Biso 1.000000     C
    C   1.0     0.881933     0.989077     0.289091  Biso 1.000000     C
    C   1.0     0.866507     0.974827     0.357133  Biso 1.000000     C
    C   1.0     0.912683     0.010315     0.138890  Biso 1.000000     C
    C   1.0     0.806441     0.028286     0.394711  Biso 1.000000     C
    C   1.0     0.761514     0.003240     0.933356  Biso 1.000000     C
    C   1.0     0.687672     0.115983     0.903445  Biso 1.000000     C
    C   1.0     0.616797     0.508254     0.289025  Biso 1.000000     C
    C   1.0     0.631556     0.522118     0.357192  Biso 1.000000     C
    C   1.0     0.586240     0.486699     0.138822  Biso 1.000000     C
    C   1.0     0.691296     0.468495     0.394877  Biso 1.000000     C
    C   1.0     0.737164     0.492893     0.933664  Biso 1.000000     C
    C   1.0     0.810577     0.379977     0.903451  Biso 1.000000     C
    C   1.0     0.508477     0.879597     0.788856  Biso 1.000000     C
    C   1.0     0.522443     0.864537     0.856970  Biso 1.000000     C
    C   1.0     0.484210     0.913336     0.639348  Biso 1.000000     C
    C   1.0     0.468955     0.804480     0.894505  Biso 1.000000     C
    C   1.0     0.493272     0.762147     0.432723  Biso 1.000000     C
    C   1.0     0.380743     0.687333     0.403704  Biso 1.000000     C
    C   1.0     0.989044     0.617098     0.788580  Biso 1.000000     C
    C   1.0     0.975388     0.632031     0.856740  Biso 1.000000     C
    C   1.0     0.013048     0.583131     0.639158  Biso 1.000000     C
    C   1.0     0.028885     0.692201     0.894173  Biso 1.000000     C
    C   1.0     0.003991     0.734328     0.432812  Biso 1.000000     C
    C   1.0     0.116769     0.808555     0.403433  Biso 1.000000     C
    C   1.0     0.116368     0.488366     0.210974  Biso 1.000000     C
    C   1.0     0.131550     0.474237     0.142895  Biso 1.000000     C
    C   1.0     0.085665     0.509784     0.361136  Biso 1.000000     C
    C   1.0     0.191474     0.527781     0.105283  Biso 1.000000     C
    C   1.0     0.236286     0.503512     0.566720  Biso 1.000000     C
    C   1.0     0.309962     0.616441     0.596520  Biso 1.000000     C
    C   1.0     0.381800     0.007745     0.210888  Biso 1.000000     C
    C   1.0     0.366899     0.021788     0.142767  Biso 1.000000     C
    C   1.0     0.411945     0.986315     0.361087  Biso 1.000000     C
    C   1.0     0.307141     0.968155     0.105071  Biso 1.000000     C
    C   1.0     0.261434     0.992980     0.566472  Biso 1.000000     C
    C   1.0     0.187295     0.880361     0.596298  Biso 1.000000     C
    C   1.0     0.489473     0.380046     0.711038  Biso 1.000000     C
    C   1.0     0.475301     0.364889     0.642968  Biso 1.000000     C
    C   1.0     0.514091     0.413877     0.860510  Biso 1.000000     C
    C   1.0     0.528599     0.304644     0.605494  Biso 1.000000     C
    C   1.0     0.504425     0.262481     0.067420  Biso 1.000000     C
    C   1.0     0.617024     0.187958     0.096716  Biso 1.000000     C
    C   1.0     0.008882     0.116943     0.711219  Biso 1.000000     C
    C   1.0     0.022497     0.131792     0.643033  Biso 1.000000     C
    C   1.0     0.985096     0.083431     0.860803  Biso 1.000000     C
    C   1.0     0.968865     0.191745     0.605505  Biso 1.000000     C
    C   1.0     0.993455     0.234229     0.067046  Biso 1.000000     C
    C   1.0     0.880797     0.308557     0.096480  Biso 1.000000     C
    C   1.0     0.056378     0.056038     0.746456  Biso 1.000000     C
    C   1.0     0.085156     0.085156     0.609400  Biso 1.000000     C
    C   1.0     0.043409     0.042877     0.818260  Biso 1.000000     C
    C   1.0     0.442447     0.441294     0.746273  Biso 1.000000     C
    C   1.0     0.412519     0.411502     0.609456  Biso 1.000000     C
    C   1.0     0.455739     0.454490     0.818040  Biso 1.000000     C
    C   1.0     0.441983     0.055741     0.246467  Biso 1.000000     C
    C   1.0     0.413038     0.085138     0.109503  Biso 1.000000     C
    C   1.0     0.454924     0.042492     0.318237  Biso 1.000000     C
    C   1.0     0.055778     0.440650     0.246380  Biso 1.000000     C
    C   1.0     0.085320     0.411066     0.109493  Biso 1.000000     C
    C   1.0     0.042604     0.453868     0.318150  Biso 1.000000     C
    C   1.0     0.941896     0.555768     0.753509  Biso 1.000000     C
    C   1.0     0.912987     0.585152     0.890479  Biso 1.000000     C
    C   1.0     0.954834     0.542512     0.681737  Biso 1.000000     C
    C   1.0     0.555776     0.940642     0.753601  Biso 1.000000     C
    C   1.0     0.585292     0.911075     0.890494  Biso 1.000000     C
    C   1.0     0.542614     0.953856     0.681829  Biso 1.000000     C
    C   1.0     0.556317     0.555987     0.253535  Biso 1.000000     C
    C   1.0     0.585106     0.585104     0.390593  Biso 1.000000     C
    C   1.0     0.543348     0.542833     0.181730  Biso 1.000000     C
    C   1.0     0.942469     0.941281     0.253693  Biso 1.000000     C
    C   1.0     0.912530     0.911491     0.390507  Biso 1.000000     C
    C   1.0     0.955763     0.954471     0.181926  Biso 1.000000     C
    N   1.0     0.056017    -0.006422     0.924039  Biso 1.000000     N
    N   1.0     0.201676     0.924347     0.036790  Biso 1.000000     N
    N   1.0     0.247378     0.853887     0.055665  Biso 1.000000     N
    N   1.0     0.442900     0.503285     0.923942  Biso 1.000000     N
    N   1.0     0.296842     0.571760     0.036950  Biso 1.000000     N
    N   1.0     0.250801     0.642109     0.055605  Biso 1.000000     N
    N   1.0     0.505122     0.053555     0.423792  Biso 1.000000     N
    N   1.0     0.572539     0.199063     0.537432  Biso 1.000000     N
    N   1.0     0.642878     0.245331     0.555777  Biso 1.000000     N
    N   1.0    -0.007952     0.442830     0.423646  Biso 1.000000     N
    N   1.0     0.924689     0.297161     0.537374  Biso 1.000000     N
    N   1.0     0.854489     0.250525     0.555481  Biso 1.000000     N
    N   1.0     0.942010     0.493257     0.575985  Biso 1.000000     N
    N   1.0     0.796541     0.424384     0.463224  Biso 1.000000     N
    N   1.0     0.750378     0.354113     0.444584  Biso 1.000000     N
    N   1.0     0.555331     0.000000     0.575998  Biso 1.000000     N
    N   1.0     0.700697     0.071971     0.462847  Biso 1.000000     N
    N   1.0     0.746622     0.142435     0.444241  Biso 1.000000     N
    N   1.0     0.492862     0.553801     0.076195  Biso 1.000000     N
    N   1.0     0.424868     0.699108     0.962728  Biso 1.000000     N
    N   1.0     0.354583     0.745421     0.944364  Biso 1.000000     N
    N   1.0     0.000000     0.943180     0.076391  Biso 1.000000     N
    N   1.0     0.073017     0.797488     0.962452  Biso 1.000000     N
    N   1.0     0.143230     0.751027     0.944167  Biso 1.000000     N
    N   1.0     0.942909     0.000000     0.076020  Biso 1.000000     N
    N   1.0     0.796834     0.071787     0.963034  Biso 1.000000     N
    N   1.0     0.750801     0.142138     0.944373  Biso 1.000000     N
    N   1.0     0.555941     0.493527     0.075952  Biso 1.000000     N
    N   1.0     0.701602     0.424373     0.963181  Biso 1.000000     N
    N   1.0     0.747341     0.353924     0.944327  Biso 1.000000     N
    N   1.0     0.492079     0.942802     0.576327  Biso 1.000000     N
    N   1.0     0.424690     0.797136     0.462615  Biso 1.000000     N
    N   1.0     0.354480     0.750522     0.444496  Biso 1.000000     N
    N   1.0     0.000000     0.553537     0.576189  Biso 1.000000     N
    N   1.0     0.072525     0.699047     0.462553  Biso 1.000000     N
    N   1.0     0.142876     0.745294     0.444203  Biso 1.000000     N
    N   1.0     0.055325     0.502904     0.423985  Biso 1.000000     N
    N   1.0     0.200670     0.571963     0.537132  Biso 1.000000     N
    N   1.0     0.246605     0.642421     0.555738  Biso 1.000000     N
    N   1.0     0.442095    -0.006758     0.423988  Biso 1.000000     N
    N   1.0     0.296577     0.924386     0.536758  Biso 1.000000     N
    N   1.0     0.250384     0.854124     0.555375  Biso 1.000000     N
    N   1.0     0.506133     0.443183     0.923578  Biso 1.000000     N
    N   1.0     0.573000     0.297482     0.037522  Biso 1.000000     N
    N   1.0     0.643230     0.251053     0.055815  Biso 1.000000     N
    N   1.0    -0.007104     0.053810     0.923789  Biso 1.000000     N
    N   1.0     0.924866     0.199109     0.037244  Biso 1.000000     N
    N   1.0     0.854581     0.245419     0.055616  Biso 1.000000     N
   Zn   1.0     0.248657     0.748051     0.000076  Biso 1.000000    Zn
   Zn   1.0     0.748433     0.248124     0.499959  Biso 1.000000    Zn
   Zn   1.0     0.748652     0.248075    -0.000077  Biso 1.000000    Zn
   Zn   1.0     0.248433     0.748112     0.500022  Biso 1.000000    Zn
   Zn   1.0     0.083444     0.915162    -0.000037  Biso 1.000000    Zn
   Zn   1.0     0.414996     0.581237    -0.000001  Biso 1.000000    Zn
   Zn   1.0     0.582306     0.081266     0.500047  Biso 1.000000    Zn
   Zn   1.0     0.914754     0.414966     0.500039  Biso 1.000000    Zn
   Zn   1.0     0.914992     0.081245    -0.000003  Biso 1.000000    Zn
   Zn   1.0     0.583332     0.415165     0.000032  Biso 1.000000    Zn
   Zn   1.0     0.414781     0.914951     0.499941  Biso 1.000000    Zn
   Zn   1.0     0.082280     0.581250     0.499935  Biso 1.000000    Zn
