#======================================================================

# CRYSTAL DATA

#----------------------------------------------------------------------

data_VESTA_phase_1


_pd_phase_name                         MOF
_cell_length_a                         17.21800
_cell_length_b                         13.09300
_cell_length_c                         15.05200
_cell_angle_alpha                      64.18900
_cell_angle_beta                       83.37900
_cell_angle_gamma                      75.36700
_symmetry_space_group_name_H-M         "P 1"
_symmetry_Int_Tables_number            1

loop_
_symmetry_equiv_pos_as_xyz
   "x, y, z"

loop_
   _atom_site_label
   _atom_site_occupancy
   _atom_site_fract_x
   _atom_site_fract_y
   _atom_site_fract_z
   _atom_site_adp_type
   _atom_site_B_iso_or_equiv
   _atom_site_type_symbol
    H   1.0     0.491327     0.456108     0.263745  Biso 1.000000     H
    H   1.0     0.991328     0.456104     0.263745  Biso 1.000000     H
    H   1.0     0.119844     0.348398     0.355028  Biso 1.000000     H
    H   1.0     0.619845     0.348401     0.355027  Biso 1.000000     H
    H   1.0     0.489537     0.139482     0.601972  Biso 1.000000     H
    H   1.0     0.989538     0.139482     0.601974  Biso 1.000000     H
    H   1.0     0.362451     0.249018     0.509590  Biso 1.000000     H
    H   1.0     0.862453     0.249017     0.509591  Biso 1.000000     H
    H   1.0     0.193396     0.203999     0.489734  Biso 1.000000     H
    H   1.0     0.693397     0.204000     0.489732  Biso 1.000000     H
    H   1.0     0.103633     0.041439     0.661924  Biso 1.000000     H
    H   1.0     0.603634     0.041442     0.661923  Biso 1.000000     H
    H   1.0     0.182688     0.914401     0.806231  Biso 1.000000     H
    H   1.0     0.682689     0.914404     0.806231  Biso 1.000000     H
    H   1.0     0.315597     0.803091     0.883503  Biso 1.000000     H
    H   1.0     0.815598     0.803093     0.883501  Biso 1.000000     H
    H   1.0     0.435163     0.959302     0.621033  Biso 1.000000     H
    H   1.0     0.935163     0.959303     0.621031  Biso 1.000000     H
    H   1.0     0.307781     0.078354     0.533564  Biso 1.000000     H
    H   1.0     0.807781     0.078356     0.533563  Biso 1.000000     H
    H   1.0     0.301266     0.951685     0.941928  Biso 1.000000     H
    H   1.0     0.801273     0.951681     0.941930  Biso 1.000000     H
    H   1.0     0.346606     0.136800     0.877706  Biso 1.000000     H
    H   1.0     0.846609     0.136800     0.877707  Biso 1.000000     H
    H   1.0     0.346976     0.107238     0.174943  Biso 1.000000     H
    H   1.0     0.846984     0.107234     0.174945  Biso 1.000000     H
    H   1.0     0.301392     0.923045     0.237043  Biso 1.000000     H
    H   1.0     0.801403     0.923039     0.237046  Biso 1.000000     H
    H   1.0     0.385699     0.280708     0.899629  Biso 1.000000     H
    H   1.0     0.885698     0.280710     0.899630  Biso 1.000000     H
    H   1.0     0.379521     0.271212     0.108493  Biso 1.000000     H
    H   1.0     0.879528     0.271209     0.108495  Biso 1.000000     H
    H   1.0     0.431699     0.428932     0.832934  Biso 1.000000     H
    H   1.0     0.931702     0.428931     0.832935  Biso 1.000000     H
    H   1.0     0.473320     0.616926     0.767475  Biso 1.000000     H
    H   1.0     0.973320     0.616926     0.767473  Biso 1.000000     H
    H   1.0     0.447277     0.625021     0.041953  Biso 1.000000     H
    H   1.0     0.947276     0.625025     0.041950  Biso 1.000000     H
    H   1.0     0.406058     0.437506     0.120061  Biso 1.000000     H
    H   1.0     0.906061     0.437507     0.120060  Biso 1.000000     H
    H   1.0     0.238932     0.723547     0.735838  Biso 1.000000     H
    H   1.0     0.738933     0.723546     0.735840  Biso 1.000000     H
    H   1.0     0.368330     0.705954     0.644667  Biso 1.000000     H
    H   1.0     0.868331     0.705954     0.644669  Biso 1.000000     H
    H   1.0     0.240401     0.739747     0.399227  Biso 1.000000     H
    H   1.0     0.740402     0.739746     0.399229  Biso 1.000000     H
    H   1.0     0.112429     0.758231     0.491448  Biso 1.000000     H
    H   1.0     0.612430     0.758231     0.491451  Biso 1.000000     H
    H   1.0     0.443222     0.693759     0.510679  Biso 1.000000     H
    H   1.0     0.943223     0.693761     0.510681  Biso 1.000000     H
    H   1.0     0.355122     0.701490     0.339210  Biso 1.000000     H
    H   1.0     0.855123     0.701485     0.339215  Biso 1.000000     H
    H   1.0     0.435532     0.718166     0.194919  Biso 1.000000     H
    H   1.0     0.935533     0.718160     0.194923  Biso 1.000000     H
    H   1.0     0.069106     0.683411     0.117740  Biso 1.000000     H
    H   1.0     0.569108     0.683414     0.117737  Biso 1.000000     H
    H   1.0     0.186244     0.577804     0.380073  Biso 1.000000     H
    H   1.0     0.686245     0.577803     0.380072  Biso 1.000000     H
    H   1.0     0.058045     0.610119     0.467487  Biso 1.000000     H
    H   1.0     0.558045     0.610120     0.467485  Biso 1.000000     H
    H   1.0     0.051275     0.893440     0.058342  Biso 1.000000     H
    H   1.0     0.551281     0.893439     0.058341  Biso 1.000000     H
    H   1.0     0.098213     0.013260     0.122063  Biso 1.000000     H
    H   1.0     0.598221     0.013259     0.122060  Biso 1.000000     H
    H   1.0     0.095522     0.283842     0.825632  Biso 1.000000     H
    H   1.0     0.595524     0.283844     0.825630  Biso 1.000000     H
    H   1.0     0.048588     0.162691     0.763994  Biso 1.000000     H
    H   1.0     0.548589     0.162693     0.763993  Biso 1.000000     H
    H   1.0     0.138543     0.178404     0.099716  Biso 1.000000     H
    H   1.0     0.638552     0.178402     0.099713  Biso 1.000000     H
    H   1.0     0.126150     0.382313     0.892764  Biso 1.000000     H
    H   1.0     0.626151     0.382316     0.892763  Biso 1.000000     H
    H   1.0     0.183686     0.259881     0.166317  Biso 1.000000     H
    H   1.0     0.683692     0.259880     0.166314  Biso 1.000000     H
    H   1.0     0.227088     0.380592     0.231896  Biso 1.000000     H
    H   1.0     0.727092     0.380591     0.231895  Biso 1.000000     H
    H   1.0     0.197779     0.666493     0.959838  Biso 1.000000     H
    H   1.0     0.697780     0.666494     0.959838  Biso 1.000000     H
    H   1.0     0.153972     0.559352     0.881793  Biso 1.000000     H
    H   1.0     0.653975     0.559354     0.881793  Biso 1.000000     H
    C   1.0     0.340924     0.421158     0.325847  Biso 1.000000     C
    C   1.0     0.840925     0.421156     0.325849  Biso 1.000000     C
    C   1.0     0.418911     0.357706     0.380135  Biso 1.000000     C
    C   1.0     0.918912     0.357703     0.380135  Biso 1.000000     C
    C   1.0     0.491810     0.385760     0.337244  Biso 1.000000     C
    C   1.0     0.991812     0.385758     0.337245  Biso 1.000000     C
    C   1.0     0.063448     0.325164     0.388258  Biso 1.000000     C
    C   1.0     0.563449     0.325166     0.388257  Biso 1.000000     C
    C   1.0     0.064783     0.233648     0.483550  Biso 1.000000     C
    C   1.0     0.564784     0.233651     0.483550  Biso 1.000000     C
    C   1.0     0.490884     0.207489     0.527303  Biso 1.000000     C
    C   1.0     0.990885     0.207488     0.527304  Biso 1.000000     C
    C   1.0     0.419549     0.268617     0.476101  Biso 1.000000     C
    C   1.0     0.919550     0.268616     0.476103  Biso 1.000000     C
    C   1.0     0.142137     0.169525     0.530996  Biso 1.000000     C
    C   1.0     0.642137     0.169527     0.530995  Biso 1.000000     C
    C   1.0     0.154607     0.074112     0.618482  Biso 1.000000     C
    C   1.0     0.654608     0.074114     0.618481  Biso 1.000000     C
    C   1.0     0.232643     0.009268     0.662911  Biso 1.000000     C
    C   1.0     0.732644     0.009270     0.662910  Biso 1.000000     C
    C   1.0     0.237296     0.928042     0.762787  Biso 1.000000     C
    C   1.0     0.737297     0.928044     0.762786  Biso 1.000000     C
    C   1.0     0.311278     0.865048     0.805956  Biso 1.000000     C
    C   1.0     0.811279     0.865050     0.805955  Biso 1.000000     C
    C   1.0     0.377793     0.953648     0.659504  Biso 1.000000     C
    C   1.0     0.877794     0.953650     0.659502  Biso 1.000000     C
    C   1.0     0.306206     0.019911     0.611579  Biso 1.000000     C
    C   1.0     0.806207     0.019912     0.611577  Biso 1.000000     C
    C   1.0     0.273818     0.811722     0.135191  Biso 1.000000     C
    C   1.0     0.773824     0.811719     0.135194  Biso 1.000000     C
    C   1.0     0.298588     0.925497     0.093588  Biso 1.000000     C
    C   1.0     0.798597     0.925492     0.093591  Biso 1.000000     C
    C   1.0     0.311279     0.986504     0.992259  Biso 1.000000     C
    C   1.0     0.811285     0.986502     0.992261  Biso 1.000000     C
    C   1.0     0.336323     0.090415     0.956693  Biso 1.000000     C
    C   1.0     0.836328     0.090413     0.956695  Biso 1.000000     C
    C   1.0     0.349689     0.136671     0.021047  Biso 1.000000     C
    C   1.0     0.849696     0.136668     0.021049  Biso 1.000000     C
    C   1.0     0.336552     0.074636     0.122971  Biso 1.000000     C
    C   1.0     0.836560     0.074633     0.122974  Biso 1.000000     C
    C   1.0     0.311233     0.971228     0.158363  Biso 1.000000     C
    C   1.0     0.811241     0.971223     0.158365  Biso 1.000000     C
    C   1.0     0.376249     0.245273     0.979506  Biso 1.000000     C
    C   1.0     0.876253     0.245271     0.979508  Biso 1.000000     C
    C   1.0     0.389384     0.304665     0.028802  Biso 1.000000     C
    C   1.0     0.889388     0.304664     0.028803  Biso 1.000000     C
    C   1.0     0.414952     0.414073     0.983819  Biso 1.000000     C
    C   1.0     0.914953     0.414074     0.983819  Biso 1.000000     C
    C   1.0     0.434326     0.468259     0.882755  Biso 1.000000     C
    C   1.0     0.934327     0.468260     0.882755  Biso 1.000000     C
    C   1.0     0.457565     0.572947     0.845248  Biso 1.000000     C
    C   1.0     0.957565     0.572949     0.845246  Biso 1.000000     C
    C   1.0     0.444064     0.577854     0.998531  Biso 1.000000     C
    C   1.0     0.944064     0.577857     0.998529  Biso 1.000000     C
    C   1.0     0.421010     0.472324     0.041639  Biso 1.000000     C
    C   1.0     0.921011     0.472326     0.041638  Biso 1.000000     C
    C   1.0     0.089149     0.749274     0.674500  Biso 1.000000     C
    C   1.0     0.589151     0.749274     0.674503  Biso 1.000000     C
    C   1.0     0.167652     0.739554     0.620205  Biso 1.000000     C
    C   1.0     0.667654     0.739553     0.620208  Biso 1.000000     C
    C   1.0     0.240136     0.725530     0.662699  Biso 1.000000     C
    C   1.0     0.740137     0.725530     0.662701  Biso 1.000000     C
    C   1.0     0.312262     0.715275     0.611756  Biso 1.000000     C
    C   1.0     0.812264     0.715275     0.611758  Biso 1.000000     C
    C   1.0     0.314523     0.717493     0.516944  Biso 1.000000     C
    C   1.0     0.814525     0.717492     0.516946  Biso 1.000000     C
    C   1.0     0.241036     0.734303     0.473547  Biso 1.000000     C
    C   1.0     0.741037     0.734303     0.473549  Biso 1.000000     C
    C   1.0     0.169209     0.744961     0.524659  Biso 1.000000     C
    C   1.0     0.669210     0.744960     0.524662  Biso 1.000000     C
    C   1.0     0.392347     0.700091     0.469643  Biso 1.000000     C
    C   1.0     0.892348     0.700090     0.469645  Biso 1.000000     C
    C   1.0     0.405674     0.691097     0.382512  Biso 1.000000     C
    C   1.0     0.905676     0.691094     0.382516  Biso 1.000000     C
    C   1.0     0.484137     0.670145     0.338177  Biso 1.000000     C
    C   1.0     0.984138     0.670142     0.338180  Biso 1.000000     C
    C   1.0     0.489726     0.688371     0.238357  Biso 1.000000     C
    C   1.0     0.989726     0.688367     0.238361  Biso 1.000000     C
    C   1.0     0.064109     0.668190     0.195230  Biso 1.000000     C
    C   1.0     0.564111     0.668194     0.195228  Biso 1.000000     C
    C   1.0     0.129247     0.610674     0.341599  Biso 1.000000     C
    C   1.0     0.629248     0.610675     0.341598  Biso 1.000000     C
    C   1.0     0.057214     0.629409     0.389496  Biso 1.000000     C
    C   1.0     0.557214     0.629410     0.389494  Biso 1.000000     C
    C   1.0     0.021221     0.948938     0.865759  Biso 1.000000     C
    C   1.0     0.521223     0.948939     0.865758  Biso 1.000000     C
    C   1.0     0.046942     0.020482     0.907116  Biso 1.000000     C
    C   1.0     0.546946     0.020482     0.907115  Biso 1.000000     C
    C   1.0     0.060963     0.979002     0.008091  Biso 1.000000     C
    C   1.0     0.560968     0.979003     0.008090  Biso 1.000000     C
    C   1.0     0.086893     0.046736     0.043379  Biso 1.000000     C
    C   1.0     0.586899     0.046736     0.043377  Biso 1.000000     C
    C   1.0     0.099672     0.157954     0.979130  Biso 1.000000     C
    C   1.0     0.599678     0.157954     0.979128  Biso 1.000000     C
    C   1.0     0.085343     0.198904     0.877554  Biso 1.000000     C
    C   1.0     0.585345     0.198906     0.877552  Biso 1.000000     C
    C   1.0     0.059263     0.131440     0.842430  Biso 1.000000     C
    C   1.0     0.559264     0.131442     0.842429  Biso 1.000000     C
    C   1.0     0.126908     0.224489     0.020459  Biso 1.000000     C
    C   1.0     0.626914     0.224489     0.020456  Biso 1.000000     C
    C   1.0     0.138254     0.334391     0.971771  Biso 1.000000     C
    C   1.0     0.638257     0.334392     0.971769  Biso 1.000000     C
    C   1.0     0.164836     0.397888     0.016689  Biso 1.000000     C
    C   1.0     0.664840     0.397889     0.016688  Biso 1.000000     C
    C   1.0     0.185910     0.349440     0.117050  Biso 1.000000     C
    C   1.0     0.685915     0.349439     0.117049  Biso 1.000000     C
    C   1.0     0.210282     0.415547     0.154587  Biso 1.000000     C
    C   1.0     0.710286     0.415547     0.154586  Biso 1.000000     C
    C   1.0     0.194758     0.575664     0.002689  Biso 1.000000     C
    C   1.0     0.694760     0.575665     0.002689  Biso 1.000000     C
    C   1.0     0.170283     0.514498     0.959587  Biso 1.000000     C
    C   1.0     0.670286     0.514500     0.959586  Biso 1.000000     C
    N   1.0     0.381242     0.876927     0.755736  Biso 1.000000     N
    N   1.0     0.881243     0.876929     0.755734  Biso 1.000000     N
    N   1.0     0.462439     0.628488     0.901641  Biso 1.000000     N
    N   1.0     0.962443     0.628487     0.901640  Biso 1.000000     N
    N   1.0     0.133610     0.629852     0.245395  Biso 1.000000     N
    N   1.0     0.633611     0.629854     0.245394  Biso 1.000000     N
    N   1.0     0.214841     0.527854     0.098873  Biso 1.000000     N
    N   1.0     0.714845     0.527854     0.098873  Biso 1.000000     N
    O   1.0     0.345617     0.510901     0.242372  Biso 1.000000     O
    O   1.0     0.845618     0.510901     0.242375  Biso 1.000000     O
    O   1.0     0.277769     0.386925     0.360485  Biso 1.000000     O
    O   1.0     0.777770     0.386927     0.360488  Biso 1.000000     O
    O   1.0     0.269429     0.765079     0.075897  Biso 1.000000     O
    O   1.0     0.769432     0.765078     0.075899  Biso 1.000000     O
    O   1.0     0.259778     0.762940     0.226377  Biso 1.000000     O
    O   1.0     0.759778     0.762942     0.226378  Biso 1.000000     O
    O   1.0     0.093051     0.756157     0.757770  Biso 1.000000     O
    O   1.0     0.593053     0.756157     0.757772  Biso 1.000000     O
    O   1.0     0.026332     0.749509     0.639941  Biso 1.000000     O
    O   1.0     0.526333     0.749511     0.639943  Biso 1.000000     O
    O   1.0     0.016660     0.842929     0.924891  Biso 1.000000     O
    O   1.0     0.516661     0.842931     0.924891  Biso 1.000000     O
    O   1.0     0.006618     0.991950     0.774878  Biso 1.000000     O
    O   1.0     0.506617     0.991952     0.774878  Biso 1.000000     O
   Zn   1.0     0.243358     0.612019     0.176927  Biso 1.000000    Zn
   Zn   1.0     0.743359     0.612019     0.176928  Biso 1.000000    Zn
   Zn   1.0     0.490312     0.791475     0.823949  Biso 1.000000    Zn
   Zn   1.0     0.990313     0.791476     0.823947  Biso 1.000000    Zn
