#======================================================================

# CRYSTAL DATA

#----------------------------------------------------------------------

data_VESTA_phase_1


_pd_phase_name                         MOF
_cell_length_a                         17.29300
_cell_length_b                         13.05600
_cell_length_c                         15.04100
_cell_angle_alpha                      64.20800
_cell_angle_beta                       83.18900
_cell_angle_gamma                      75.68100
_symmetry_space_group_name_H-M         "P 1"
_symmetry_Int_Tables_number            1

loop_
_symmetry_equiv_pos_as_xyz
   "x, y, z"

loop_
   _atom_site_label
   _atom_site_occupancy
   _atom_site_fract_x
   _atom_site_fract_y
   _atom_site_fract_z
   _atom_site_adp_type
   _atom_site_B_iso_or_equiv
   _atom_site_type_symbol
    H   1.0     0.022795     0.062819     0.488831  Biso 1.000000     H
    H   1.0     0.522803     0.062825     0.488828  Biso 1.000000     H
    H   1.0     0.151295     0.042975     0.398553  Biso 1.000000     H
    H   1.0     0.651302     0.042976     0.398550  Biso 1.000000     H
    H   1.0     0.275292     0.000000     0.646595  Biso 1.000000     H
    H   1.0     0.775302     0.000000     0.646595  Biso 1.000000     H
    H   1.0     0.145365     0.026757     0.735885  Biso 1.000000     H
    H   1.0     0.645374     0.026753     0.735884  Biso 1.000000     H
    H   1.0     0.351536     0.996570     0.512708  Biso 1.000000     H
    H   1.0     0.851545     0.996573     0.512703  Biso 1.000000     H
    H   1.0     0.265813     0.000000     0.340785  Biso 1.000000     H
    H   1.0     0.765824     0.000000     0.340787  Biso 1.000000     H
    H   1.0     0.347262     0.000000     0.197309  Biso 1.000000     H
    H   1.0     0.847274     0.000000     0.197308  Biso 1.000000     H
    H   1.0     0.480862     0.980930     0.121754  Biso 1.000000     H
    H   1.0     0.980876     0.980936     0.121754  Biso 1.000000     H
    H   1.0     0.094489     0.877675     0.384945  Biso 1.000000     H
    H   1.0     0.594506     0.877668     0.384941  Biso 1.000000     H
    H   1.0     0.466139     0.912135     0.470805  Biso 1.000000     H
    H   1.0     0.966145     0.912135     0.470807  Biso 1.000000     H
    H   1.0     0.210248     0.251416     0.944516  Biso 1.000000     H
    H   1.0     0.710262     0.251416     0.944513  Biso 1.000000     H
    H   1.0     0.256391     0.436847     0.879177  Biso 1.000000     H
    H   1.0     0.756405     0.436847     0.879175  Biso 1.000000     H
    H   1.0     0.258846     0.407465     0.176289  Biso 1.000000     H
    H   1.0     0.758857     0.407466     0.176287  Biso 1.000000     H
    H   1.0     0.212422     0.223057     0.239457  Biso 1.000000     H
    H   1.0     0.712434     0.223057     0.239454  Biso 1.000000     H
    H   1.0     0.295917     0.581609     0.900110  Biso 1.000000     H
    H   1.0     0.795929     0.581611     0.900108  Biso 1.000000     H
    H   1.0     0.291156     0.572548     0.108850  Biso 1.000000     H
    H   1.0     0.791170     0.572546     0.108849  Biso 1.000000     H
    H   1.0     0.344322     0.728271     0.832997  Biso 1.000000     H
    H   1.0     0.844335     0.728273     0.832996  Biso 1.000000     H
    H   1.0     0.383183     0.919289     0.765184  Biso 1.000000     H
    H   1.0     0.883195     0.919291     0.765184  Biso 1.000000     H
    H   1.0     0.353414     0.932864     0.037857  Biso 1.000000     H
    H   1.0     0.853426     0.932862     0.037860  Biso 1.000000     H
    H   1.0     0.314554     0.742756     0.118288  Biso 1.000000     H
    H   1.0     0.814567     0.742754     0.118289  Biso 1.000000     H
    H   1.0     0.273257     0.551695     0.511732  Biso 1.000000     H
    H   1.0     0.773269     0.551689     0.511730  Biso 1.000000     H
    H   1.0     0.399781     0.443778     0.602757  Biso 1.000000     H
    H   1.0     0.899793     0.443780     0.602756  Biso 1.000000     H
    H   1.0     0.029267     0.650415     0.351843  Biso 1.000000     H
    H   1.0     0.529281     0.650409     0.351840  Biso 1.000000     H
    H   1.0     0.401293     0.756483     0.261920  Biso 1.000000     H
    H   1.0     0.901304     0.756484     0.261920  Biso 1.000000     H
    H   1.0     0.102469     0.508484     0.487172  Biso 1.000000     H
    H   1.0     0.602484     0.508483     0.487174  Biso 1.000000     H
    H   1.0     0.012915     0.345370     0.660481  Biso 1.000000     H
    H   1.0     0.512930     0.345354     0.660473  Biso 1.000000     H
    H   1.0     0.091368     0.217849     0.803968  Biso 1.000000     H
    H   1.0     0.591381     0.217845     0.803965  Biso 1.000000     H
    H   1.0     0.223477     0.106942     0.880151  Biso 1.000000     H
    H   1.0     0.723491     0.106946     0.880152  Biso 1.000000     H
    H   1.0     0.342610     0.266144     0.617116  Biso 1.000000     H
    H   1.0     0.842624     0.266145     0.617117  Biso 1.000000     H
    H   1.0     0.216043     0.384859     0.530752  Biso 1.000000     H
    H   1.0     0.716057     0.384851     0.530750  Biso 1.000000     H
    H   1.0     0.460638     0.195446     0.055617  Biso 1.000000     H
    H   1.0     0.960654     0.195446     0.055618  Biso 1.000000     H
    H   1.0     0.009431     0.313611     0.120054  Biso 1.000000     H
    H   1.0     0.509441     0.313612     0.120051  Biso 1.000000     H
    H   1.0     0.006069     0.587353     0.824650  Biso 1.000000     H
    H   1.0     0.506080     0.587352     0.824647  Biso 1.000000     H
    H   1.0     0.457250     0.467866     0.762337  Biso 1.000000     H
    H   1.0     0.957263     0.467869     0.762339  Biso 1.000000     H
    H   1.0     0.051327     0.478147     0.098236  Biso 1.000000     H
    H   1.0     0.551345     0.478144     0.098231  Biso 1.000000     H
    H   1.0     0.034589     0.686446     0.893437  Biso 1.000000     H
    H   1.0     0.534590     0.686451     0.893436  Biso 1.000000     H
    H   1.0     0.098147     0.557576     0.164770  Biso 1.000000     H
    H   1.0     0.598153     0.557579     0.164767  Biso 1.000000     H
    H   1.0     0.140893     0.676938     0.232779  Biso 1.000000     H
    H   1.0     0.640906     0.676938     0.232773  Biso 1.000000     H
    H   1.0     0.104762     0.969594     0.965525  Biso 1.000000     H
    H   1.0     0.604778     0.969593     0.965518  Biso 1.000000     H
    H   1.0     0.060637     0.864403     0.885256  Biso 1.000000     H
    H   1.0     0.560646     0.864403     0.885252  Biso 1.000000     H
    C   1.0    -0.002850     0.054550     0.671800  Biso 1.000000     C
    C   1.0     0.497163     0.054524     0.671810  Biso 1.000000     C
    C   1.0     0.075979     0.043713     0.618744  Biso 1.000000     C
    C   1.0     0.575984     0.043765     0.618725  Biso 1.000000     C
    C   1.0     0.078812     0.049025     0.523050  Biso 1.000000     C
    C   1.0     0.578822     0.048997     0.523058  Biso 1.000000     C
    C   1.0     0.150946     0.037627     0.473007  Biso 1.000000     C
    C   1.0     0.650953     0.037647     0.472997  Biso 1.000000     C
    C   1.0     0.223453     0.020321     0.517610  Biso 1.000000     C
    C   1.0     0.723462     0.020289     0.517619  Biso 1.000000     C
    C   1.0     0.219961     0.017991     0.612651  Biso 1.000000     C
    C   1.0     0.719969     0.018007     0.612643  Biso 1.000000     C
    C   1.0     0.147535     0.028870     0.662550  Biso 1.000000     C
    C   1.0     0.647546     0.028838     0.662559  Biso 1.000000     C
    C   1.0     0.301422     0.000000     0.471268  Biso 1.000000     C
    C   1.0     0.801429     0.000000     0.471256  Biso 1.000000     C
    C   1.0     0.315634     0.992562     0.384410  Biso 1.000000     C
    C   1.0     0.815642     0.992549     0.384414  Biso 1.000000     C
    C   1.0     0.394095     0.970921     0.340916  Biso 1.000000     C
    C   1.0     0.894103     0.970910     0.340919  Biso 1.000000     C
    C   1.0     0.400680     0.988069     0.241263  Biso 1.000000     C
    C   1.0     0.900692     0.988079     0.241260  Biso 1.000000     C
    C   1.0     0.475062     0.966856     0.199030  Biso 1.000000     C
    C   1.0     0.975074     0.966852     0.199033  Biso 1.000000     C
    C   1.0     0.038253     0.910432     0.345904  Biso 1.000000     C
    C   1.0     0.538270     0.910434     0.345899  Biso 1.000000     C
    C   1.0     0.466181     0.930316     0.392938  Biso 1.000000     C
    C   1.0     0.966189     0.930327     0.392937  Biso 1.000000     C
    C   1.0     0.183183     0.111584     0.138040  Biso 1.000000     C
    C   1.0     0.683197     0.111583     0.138037  Biso 1.000000     C
    C   1.0     0.208352     0.225546     0.096084  Biso 1.000000     C
    C   1.0     0.708362     0.225548     0.096081  Biso 1.000000     C
    C   1.0     0.220857     0.286452     0.994525  Biso 1.000000     C
    C   1.0     0.720871     0.286452     0.994522  Biso 1.000000     C
    C   1.0     0.246350     0.390495     0.958364  Biso 1.000000     C
    C   1.0     0.746362     0.390496     0.958361  Biso 1.000000     C
    C   1.0     0.260474     0.436917     0.022376  Biso 1.000000     C
    C   1.0     0.760488     0.436917     0.022374  Biso 1.000000     C
    C   1.0     0.247723     0.374818     0.124574  Biso 1.000000     C
    C   1.0     0.747734     0.374819     0.124571  Biso 1.000000     C
    C   1.0     0.221964     0.271256     0.160567  Biso 1.000000     C
    C   1.0     0.721977     0.271256     0.160564  Biso 1.000000     C
    C   1.0     0.287085     0.545997     0.980194  Biso 1.000000     C
    C   1.0     0.787097     0.545998     0.980192  Biso 1.000000     C
    C   1.0     0.300581     0.605938     0.028987  Biso 1.000000     C
    C   1.0     0.800594     0.605938     0.028987  Biso 1.000000     C
    C   1.0     0.325429     0.716387     0.983052  Biso 1.000000     C
    C   1.0     0.825442     0.716386     0.983052  Biso 1.000000     C
    C   1.0     0.345355     0.769621     0.881867  Biso 1.000000     C
    C   1.0     0.845367     0.769623     0.881867  Biso 1.000000     C
    C   1.0     0.367158     0.875854     0.843103  Biso 1.000000     C
    C   1.0     0.867171     0.875856     0.843103  Biso 1.000000     C
    C   1.0     0.351535     0.883804    -0.004532  Biso 1.000000     C
    C   1.0     0.851548     0.883803    -0.004530  Biso 1.000000     C
    C   1.0     0.329800     0.776877     0.039799  Biso 1.000000     C
    C   1.0     0.829813     0.776876     0.039799  Biso 1.000000     C
    C   1.0     0.251653     0.721657     0.327205  Biso 1.000000     C
    C   1.0     0.751660     0.721670     0.327218  Biso 1.000000     C
    C   1.0     0.329321     0.659173     0.380467  Biso 1.000000     C
    C   1.0     0.829339     0.659129     0.380446  Biso 1.000000     C
    C   1.0     0.330036     0.571118     0.477071  Biso 1.000000     C
    C   1.0     0.830046     0.571142     0.477082  Biso 1.000000     C
    C   1.0     0.401051     0.510939     0.527549  Biso 1.000000     C
    C   1.0     0.901065     0.510923     0.527540  Biso 1.000000     C
    C   1.0     0.474531     0.536944     0.482295  Biso 1.000000     C
    C   1.0     0.974542     0.536971     0.482308  Biso 1.000000     C
    C   1.0     0.473162     0.627375     0.386292  Biso 1.000000     C
    C   1.0     0.973175     0.627362     0.386286  Biso 1.000000     C
    C   1.0     0.401839     0.686999     0.336000  Biso 1.000000     C
    C   1.0     0.901848     0.687025     0.336012  Biso 1.000000     C
    C   1.0     0.051449     0.473666     0.529040  Biso 1.000000     C
    C   1.0     0.551460     0.473682     0.529049  Biso 1.000000     C
    C   1.0     0.063705     0.378409     0.616649  Biso 1.000000     C
    C   1.0     0.563719     0.378399     0.616641  Biso 1.000000     C
    C   1.0     0.141225     0.314070     0.660483  Biso 1.000000     C
    C   1.0     0.641237     0.314052     0.660477  Biso 1.000000     C
    C   1.0     0.145732     0.232249     0.760215  Biso 1.000000     C
    C   1.0     0.645747     0.232258     0.760217  Biso 1.000000     C
    C   1.0     0.219236     0.169568     0.802778  Biso 1.000000     C
    C   1.0     0.719250     0.169560     0.802775  Biso 1.000000     C
    C   1.0     0.285539     0.259684     0.655994  Biso 1.000000     C
    C   1.0     0.785552     0.259675     0.655991  Biso 1.000000     C
    C   1.0     0.214418     0.325684     0.608662  Biso 1.000000     C
    C   1.0     0.714432     0.325691     0.608664  Biso 1.000000     C
    C   1.0     0.428672     0.253851     0.863322  Biso 1.000000     C
    C   1.0     0.928690     0.253851     0.863323  Biso 1.000000     C
    C   1.0     0.455630     0.324358     0.904985  Biso 1.000000     C
    C   1.0     0.955638     0.324363     0.904987  Biso 1.000000     C
    C   1.0     0.470531     0.281405     0.005821  Biso 1.000000     C
    C   1.0     0.970550     0.281403     0.005822  Biso 1.000000     C
    C   1.0    -0.002501     0.348179     0.041474  Biso 1.000000     C
    C   1.0     0.497512     0.348178     0.041471  Biso 1.000000     C
    C   1.0     0.010453     0.459904     0.977713  Biso 1.000000     C
    C   1.0     0.510460     0.459906     0.977711  Biso 1.000000     C
    C   1.0     0.495489     0.502175     0.876214  Biso 1.000000     C
    C   1.0     0.995501     0.502177     0.876217  Biso 1.000000     C
    C   1.0     0.468412     0.435628     0.840723  Biso 1.000000     C
    C   1.0     0.968430     0.435626     0.840724  Biso 1.000000     C
    C   1.0     0.038281     0.525773     0.019451  Biso 1.000000     C
    C   1.0     0.538294     0.525771     0.019447  Biso 1.000000     C
    C   1.0     0.048337     0.636831     0.971849  Biso 1.000000     C
    C   1.0     0.548347     0.636831     0.971845  Biso 1.000000     C
    C   1.0     0.075239     0.699502     0.017544  Biso 1.000000     C
    C   1.0     0.575239     0.699507     0.017543  Biso 1.000000     C
    C   1.0     0.098468     0.648518     0.117154  Biso 1.000000     C
    C   1.0     0.598485     0.648516     0.117148  Biso 1.000000     C
    C   1.0     0.122705     0.713756     0.155928  Biso 1.000000     C
    C   1.0     0.622711     0.713759     0.155924  Biso 1.000000     C
    C   1.0     0.103180     0.877722     0.000000  Biso 1.000000     C
    C   1.0     0.603188     0.877724     0.000000  Biso 1.000000     C
    C   1.0     0.078523     0.817688     0.962379  Biso 1.000000     C
    C   1.0     0.578542     0.817685     0.962371  Biso 1.000000     C
    N   1.0     0.043604     0.928475     0.249864  Biso 1.000000     N
    N   1.0     0.543618     0.928464     0.249863  Biso 1.000000     N
    N   1.0     0.370144     0.933690     0.898392  Biso 1.000000     N
    N   1.0     0.870156     0.933690     0.898393  Biso 1.000000     N
    N   1.0     0.288860     0.182315     0.752112  Biso 1.000000     N
    N   1.0     0.788874     0.182324     0.752114  Biso 1.000000     N
    N   1.0     0.125150     0.827525     0.102162  Biso 1.000000     N
    N   1.0     0.625169     0.827524     0.102154  Biso 1.000000     N
    O   1.0     0.000002     0.062157     0.755004  Biso 1.000000     O
    O   1.0     0.500014     0.062160     0.755002  Biso 1.000000     O
    O   1.0     0.435029     0.054960     0.636443  Biso 1.000000     O
    O   1.0     0.935048     0.054949     0.636446  Biso 1.000000     O
    O   1.0     0.177154     0.065698     0.078662  Biso 1.000000     O
    O   1.0     0.677167     0.065699     0.078658  Biso 1.000000     O
    O   1.0     0.170260     0.061917     0.229667  Biso 1.000000     O
    O   1.0     0.670272     0.061918     0.229664  Biso 1.000000     O
    O   1.0     0.255948     0.811779     0.243590  Biso 1.000000     O
    O   1.0     0.755958     0.811775     0.243589  Biso 1.000000     O
    O   1.0     0.188916     0.686580     0.362729  Biso 1.000000     O
    O   1.0     0.688932     0.686563     0.362723  Biso 1.000000     O
    O   1.0     0.423444     0.147732     0.921998  Biso 1.000000     O
    O   1.0     0.923457     0.147734     0.922000  Biso 1.000000     O
    O   1.0     0.413659     0.297919     0.772535  Biso 1.000000     O
    O   1.0     0.913671     0.297922     0.772536  Biso 1.000000     O
   Zn   1.0     0.397030     0.097719     0.819912  Biso 1.000000    Zn
   Zn   1.0     0.897044     0.097720     0.819913  Biso 1.000000    Zn
   Zn   1.0     0.153186     0.910802     0.181599  Biso 1.000000    Zn
   Zn   1.0     0.653199     0.910803     0.181591  Biso 1.000000    Zn
