#======================================================================

# CRYSTAL DATA

#----------------------------------------------------------------------

data_VESTA_phase_1


_pd_phase_name                         MOF
_cell_length_a                         16.79700
_cell_length_b                         13.48400
_cell_length_c                         14.18600
_cell_angle_alpha                      61.62600
_cell_angle_beta                       85.79400
_cell_angle_gamma                      81.12200
_symmetry_space_group_name_H-M         "P 1"
_symmetry_Int_Tables_number            1

loop_
_symmetry_equiv_pos_as_xyz
   "x, y, z"

loop_
   _atom_site_label
   _atom_site_occupancy
   _atom_site_fract_x
   _atom_site_fract_y
   _atom_site_fract_z
   _atom_site_adp_type
   _atom_site_B_iso_or_equiv
   _atom_site_type_symbol
    H   1.0     0.183794     0.159263     0.553352  Biso 1.000000     H
    H   1.0     0.696521     0.159264     0.553344  Biso 1.000000     H
    H   1.0     0.474975     0.117861     0.108755  Biso 1.000000     H
    H   1.0     0.987682     0.117878     0.108735  Biso 1.000000     H
    H   1.0     0.263508     0.109977     0.188044  Biso 1.000000     H
    H   1.0     0.776243     0.109984     0.188022  Biso 1.000000     H
    H   1.0     0.393193     0.229449     0.433561  Biso 1.000000     H
    H   1.0     0.905920     0.229450     0.433551  Biso 1.000000     H
    H   1.0     0.443744     0.740702     0.251239  Biso 1.000000     H
    H   1.0     0.956476     0.740701     0.251235  Biso 1.000000     H
    H   1.0     0.203433     0.083161     0.900984  Biso 1.000000     H
    H   1.0     0.716173     0.083160     0.900962  Biso 1.000000     H
    H   1.0     0.370698     0.426643     0.000000  Biso 1.000000     H
    H   1.0     0.883426     0.426655     0.000000  Biso 1.000000     H
    H   1.0     0.556216     0.862338     0.954665  Biso 1.000000     H
    H   1.0     0.000000     0.862346     0.954653  Biso 1.000000     H
    H   1.0     0.499908     0.599589     0.873072  Biso 1.000000     H
    H   1.0     0.000000     0.599610     0.873059  Biso 1.000000     H
    H   1.0     0.074590     0.282450     0.505846  Biso 1.000000     H
    H   1.0     0.587317     0.282446     0.505841  Biso 1.000000     H
    H   1.0     0.245471     0.745409     0.672793  Biso 1.000000     H
    H   1.0     0.758187     0.745397     0.672793  Biso 1.000000     H
    H   1.0     0.500828     0.680124     0.000000  Biso 1.000000     H
    H   1.0     0.000000     0.680127     0.000000  Biso 1.000000     H
    H   1.0     0.479886     0.647128     0.529041  Biso 1.000000     H
    H   1.0     0.992606     0.647137     0.529033  Biso 1.000000     H
    H   1.0     0.074369     0.570152     0.126794  Biso 1.000000     H
    H   1.0     0.587090     0.570155     0.126791  Biso 1.000000     H
    H   1.0     0.164919     0.637100     0.284122  Biso 1.000000     H
    H   1.0     0.677638     0.637103     0.284123  Biso 1.000000     H
    H   1.0     0.518039     0.067025     0.967597  Biso 1.000000     H
    H   1.0     0.000000     0.067032     0.967581  Biso 1.000000     H
    H   1.0     0.260576     0.803397     0.128834  Biso 1.000000     H
    H   1.0     0.773304     0.803410     0.128823  Biso 1.000000     H
    H   1.0     0.323086     0.220873     0.255733  Biso 1.000000     H
    H   1.0     0.835811     0.220884     0.255715  Biso 1.000000     H
    H   1.0     0.205751     0.704159     0.045412  Biso 1.000000     H
    H   1.0     0.718473     0.704168     0.045408  Biso 1.000000     H
    H   1.0     0.204818     0.457898     0.211123  Biso 1.000000     H
    H   1.0     0.717540     0.457902     0.211116  Biso 1.000000     H
    H   1.0     0.176089     0.594946     0.651061  Biso 1.000000     H
    H   1.0     0.688813     0.594926     0.651070  Biso 1.000000     H
    H   1.0     0.311307     0.317089     0.949837  Biso 1.000000     H
    H   1.0     0.824045     0.317097     0.949816  Biso 1.000000     H
    H   1.0     0.107141     0.406858     0.827765  Biso 1.000000     H
    H   1.0     0.619863     0.406849     0.827780  Biso 1.000000     H
    H   1.0     0.460170     0.852199     0.797627  Biso 1.000000     H
    H   1.0     0.972895     0.852205     0.797620  Biso 1.000000     H
    H   1.0     0.370291     0.721129     0.577467  Biso 1.000000     H
    H   1.0     0.883006     0.721124     0.577463  Biso 1.000000     H
    H   1.0     0.281573     0.326160     0.367718  Biso 1.000000     H
    H   1.0     0.794298     0.326161     0.367708  Biso 1.000000     H
    H   1.0     0.560015     0.228483     0.894929  Biso 1.000000     H
    H   1.0     0.000000     0.228494     0.894910  Biso 1.000000     H
    H   1.0     0.369305     0.627052     0.957277  Biso 1.000000     H
    H   1.0     0.882026     0.627064     0.957269  Biso 1.000000     H
    H   1.0     0.253438     0.010372     0.698515  Biso 1.000000     H
    H   1.0     0.766164     0.010375     0.698507  Biso 1.000000     H
    H   1.0     0.577005     0.625573     0.716482  Biso 1.000000     H
    H   1.0     0.000000     0.625589     0.716471  Biso 1.000000     H
    H   1.0     0.258049     0.158239     0.973464  Biso 1.000000     H
    H   1.0     0.770794     0.158241     0.973439  Biso 1.000000     H
    H   1.0     0.222265     0.021154     0.115404  Biso 1.000000     H
    H   1.0     0.734994     0.021168     0.115385  Biso 1.000000     H
    H   1.0     0.301950     0.584803     0.551072  Biso 1.000000     H
    H   1.0     0.814673     0.584790     0.551076  Biso 1.000000     H
    H   1.0     0.074814     0.432142     0.063322  Biso 1.000000     H
    H   1.0     0.587555     0.432125     0.063339  Biso 1.000000     H
    H   1.0     0.527695     0.252965     0.132758  Biso 1.000000     H
    H   1.0     0.000000     0.252985     0.132737  Biso 1.000000     H
    H   1.0     0.147680    -0.029375     0.831257  Biso 1.000000     H
    H   1.0     0.660412    -0.029378     0.831245  Biso 1.000000     H
    H   1.0     0.518659     0.117484     0.533759  Biso 1.000000     H
    H   1.0     0.000000     0.117488     0.533751  Biso 1.000000     H
    H   1.0     0.499859     0.922705     0.181131  Biso 1.000000     H
    H   1.0     0.000000     0.922706     0.181122  Biso 1.000000     H
    H   1.0     0.462685     0.402758     0.410473  Biso 1.000000     H
    H   1.0     0.975402     0.402762     0.410474  Biso 1.000000     H
    H   1.0     0.550186     0.646494     0.382968  Biso 1.000000     H
    H   1.0     0.000000     0.646497     0.382963  Biso 1.000000     H
    C   1.0     0.279093     0.193885     0.131773  Biso 1.000000     C
    C   1.0     0.791826     0.193894     0.131752  Biso 1.000000     C
    C   1.0     0.077702     0.343830     0.421344  Biso 1.000000     C
    C   1.0     0.590428     0.343828     0.421340  Biso 1.000000     C
    C   1.0     0.245145     0.849958     0.043963  Biso 1.000000     C
    C   1.0     0.757874     0.849967     0.043951  Biso 1.000000     C
    C   1.0     0.062022     0.256585     0.951218  Biso 1.000000     C
    C   1.0     0.574751     0.256572     0.951236  Biso 1.000000     C
    C   1.0     0.447308     0.655287     0.717617  Biso 1.000000     C
    C   1.0     0.960027     0.655296     0.717609  Biso 1.000000     C
    C   1.0     0.331722     0.365037     0.100283  Biso 1.000000     C
    C   1.0     0.844447     0.365050     0.100266  Biso 1.000000     C
    C   1.0     0.540046     0.824867     0.000000  Biso 1.000000     C
    C   1.0     0.000000     0.824873     0.000000  Biso 1.000000     C
    C   1.0     0.461340     0.786933     0.167272  Biso 1.000000     C
    C   1.0     0.974066     0.786934     0.167267  Biso 1.000000     C
    C   1.0     0.303085     0.711652     0.714378  Biso 1.000000     C
    C   1.0     0.815802     0.711648     0.714376  Biso 1.000000     C
    C   1.0     0.244259     0.885262     0.915418  Biso 1.000000     C
    C   1.0     0.756991     0.885262     0.915406  Biso 1.000000     C
    C   1.0     0.264676     0.239180     0.021177  Biso 1.000000     C
    C   1.0     0.777411     0.239188     0.021155  Biso 1.000000     C
    C   1.0     0.506264     0.031639     0.000000  Biso 1.000000     C
    C   1.0     0.000000     0.031648     0.000000  Biso 1.000000     C
    C   1.0     0.470995     0.790942     0.001610  Biso 1.000000     C
    C   1.0     0.983709     0.790946     0.001603  Biso 1.000000     C
    C   1.0     0.514305     0.945558     0.017991  Biso 1.000000     C
    C   1.0     0.000000     0.945564     0.017979  Biso 1.000000     C
    C   1.0     0.211556     0.071012     0.029230  Biso 1.000000     C
    C   1.0     0.724290     0.071021     0.029209  Biso 1.000000     C
    C   1.0     0.457587     0.003456     0.672786  Biso 1.000000     C
    C   1.0     0.970313     0.003460     0.672779  Biso 1.000000     C
    C   1.0     0.533281     0.637728     0.574005  Biso 1.000000     C
    C   1.0     0.000000     0.637740     0.573996  Biso 1.000000     C
    C   1.0     0.524101     0.638948     0.669216  Biso 1.000000     C
    C   1.0     0.000000     0.638961     0.669207  Biso 1.000000     C
    C   1.0     0.252301     0.724676     0.000000  Biso 1.000000     C
    C   1.0     0.765027     0.724684     0.000000  Biso 1.000000     C
    C   1.0     0.492652     0.888361     0.127081  Biso 1.000000     C
    C   1.0     0.000000     0.888364     0.127072  Biso 1.000000     C
    C   1.0     0.195626    -0.004917     0.955413  Biso 1.000000     C
    C   1.0     0.708361    -0.004915     0.955395  Biso 1.000000     C
    C   1.0     0.486458     0.155012     0.022620  Biso 1.000000     C
    C   1.0     0.999167     0.155026     0.022600  Biso 1.000000     C
    C   1.0     0.444713     0.630874     0.826051  Biso 1.000000     C
    C   1.0     0.957433     0.630888     0.826042  Biso 1.000000     C
    C   1.0     0.147437     0.506784     0.938165  Biso 1.000000     C
    C   1.0     0.660162     0.506776     0.938177  Biso 1.000000     C
    C   1.0     0.172778     0.605974     0.570079  Biso 1.000000     C
    C   1.0     0.685501     0.605959     0.570087  Biso 1.000000     C
    C   1.0     0.095551     0.635000     0.419126  Biso 1.000000     C
    C   1.0     0.608272     0.634995     0.419131  Biso 1.000000     C
    C   1.0     0.237375     0.194887     0.509049  Biso 1.000000     C
    C   1.0     0.750101     0.194888     0.509039  Biso 1.000000     C
    C   1.0     0.243433     0.599985     0.514644  Biso 1.000000     C
    C   1.0     0.756155     0.599974     0.514649  Biso 1.000000     C
    C   1.0     0.060462     0.401759     0.008840  Biso 1.000000     C
    C   1.0     0.573199     0.401744     0.008857  Biso 1.000000     C
    C   1.0     0.382450    -0.026672     0.718517  Biso 1.000000     C
    C   1.0     0.895176    -0.026667     0.718510  Biso 1.000000     C
    C   1.0     0.355505     0.342254     0.000000  Biso 1.000000     C
    C   1.0     0.868234     0.342266     0.000000  Biso 1.000000     C
    C   1.0     0.268404     0.109839     0.000000  Biso 1.000000     C
    C   1.0     0.781144     0.109845     0.000000  Biso 1.000000     C
    C   1.0     0.095331     0.356729     0.912953  Biso 1.000000     C
    C   1.0     0.608058     0.356718     0.912970  Biso 1.000000     C
    C   1.0     0.319011     0.607572     0.351871  Biso 1.000000     C
    C   1.0     0.831731     0.607572     0.351871  Biso 1.000000     C
    C   1.0     0.149520     0.442009     0.257906  Biso 1.000000     C
    C   1.0     0.662243     0.442011     0.257900  Biso 1.000000     C
    C   1.0     0.228530     0.292108     0.414486  Biso 1.000000     C
    C   1.0     0.741255     0.292109     0.414477  Biso 1.000000     C
    C   1.0     0.459971     0.096117     0.569461  Biso 1.000000     C
    C   1.0     0.972697     0.096121     0.569453  Biso 1.000000     C
    C   1.0     0.166562     0.629347     0.363881  Biso 1.000000     C
    C   1.0     0.679283     0.629345     0.363884  Biso 1.000000     C
    C   1.0     0.312218     0.255624     0.170356  Biso 1.000000     C
    C   1.0     0.824945     0.255635     0.170338  Biso 1.000000     C
    C   1.0     0.241513     0.612610     0.410544  Biso 1.000000     C
    C   1.0     0.754234     0.612606     0.410546  Biso 1.000000     C
    C   1.0     0.365270     0.430058     0.145638  Biso 1.000000     C
    C   1.0     0.877991     0.430071     0.145623  Biso 1.000000     C
    C   1.0     0.559028     0.192038     0.000000  Biso 1.000000     C
    C   1.0     0.000000     0.192053     0.000000  Biso 1.000000     C
    C   1.0     0.322567     0.280251     0.000000  Biso 1.000000     C
    C   1.0     0.835302     0.280260     0.000000  Biso 1.000000     C
    C   1.0     0.520392     0.410746     0.369101  Biso 1.000000     C
    C   1.0     0.000000     0.410749     0.369103  Biso 1.000000     C
    C   1.0     0.096977     0.625245     0.522537  Biso 1.000000     C
    C   1.0     0.609699     0.625233     0.522544  Biso 1.000000     C
    C   1.0     0.389556     0.158546     0.513933  Biso 1.000000     C
    C   1.0     0.902282     0.158548     0.513923  Biso 1.000000     C
    C   1.0     0.313562     0.130050     0.560582  Biso 1.000000     C
    C   1.0     0.826289     0.130052     0.560572  Biso 1.000000     C
    C   1.0     0.151870     0.357394     0.366089  Biso 1.000000     C
    C   1.0     0.664594     0.357395     0.366083  Biso 1.000000     C
    C   1.0     0.372058     0.646945     0.873115  Biso 1.000000     C
    C   1.0     0.884779     0.646954     0.873108  Biso 1.000000     C
    C   1.0     0.076964     0.505481     0.210805  Biso 1.000000     C
    C   1.0     0.589686     0.505483     0.210801  Biso 1.000000     C
    C   1.0     0.216246    -0.056030     0.000000  Biso 1.000000     C
    C   1.0     0.728979    -0.056023     0.000000  Biso 1.000000     C
    C   1.0     0.614524     0.890501     0.731619  Biso 1.000000     C
    C   1.0     0.000000     0.890508     0.731614  Biso 1.000000     C
    C   1.0     0.373235     0.697382     0.662134  Biso 1.000000     C
    C   1.0     0.885952     0.697382     0.662129  Biso 1.000000     C
    C   1.0     0.113790     0.396550     0.983117  Biso 1.000000     C
    C   1.0     0.626520     0.396540     0.983132  Biso 1.000000     C
    C   1.0     0.311679     0.035202     0.663140  Biso 1.000000     C
    C   1.0     0.824405     0.035205     0.663131  Biso 1.000000     C
    C   1.0     0.540014     0.301199     0.047304  Biso 1.000000     C
    C   1.0     0.000000     0.301216     0.047285  Biso 1.000000     C
    N   1.0     0.232625     0.775018     0.977000  Biso 1.000000     N
    N   1.0     0.745351     0.775021     0.976993  Biso 1.000000     N
    N   1.0     0.450399     0.737446     0.106168  Biso 1.000000     N
    N   1.0     0.963120     0.737448     0.106164  Biso 1.000000     N
    N   1.0     0.519065     0.490847     0.264857  Biso 1.000000     N
    N   1.0     0.000000     0.490848     0.264859  Biso 1.000000     N
    N   1.0     0.301529     0.686769     0.818833  Biso 1.000000     N
    N   1.0     0.814248     0.686770     0.818828  Biso 1.000000     N
    O   1.0     0.311233     0.606624     0.261428  Biso 1.000000     O
    O   1.0     0.823954     0.606627     0.261426  Biso 1.000000     O
    O   1.0     0.158124     0.547163     0.000000  Biso 1.000000     O
    O   1.0     0.670848     0.547160     0.000000  Biso 1.000000     O
    O   1.0     0.606295     0.799209     0.821954  Biso 1.000000     O
    O   1.0     0.000000     0.799216     0.821950  Biso 1.000000     O
    O   1.0     0.384693     0.605466     0.389617  Biso 1.000000     O
    O   1.0     0.897414     0.605468     0.389616  Biso 1.000000     O
    O   1.0     0.380106     0.383021     0.244478  Biso 1.000000     O
    O   1.0     0.892826     0.383032     0.244463  Biso 1.000000     O
    O   1.0     0.376303     0.534705     0.081384  Biso 1.000000     O
    O   1.0     0.889025     0.534719     0.081372  Biso 1.000000     O
    O   1.0     0.162675     0.558636     0.839427  Biso 1.000000     O
    O   1.0     0.675398     0.558627     0.839438  Biso 1.000000     O
    O   1.0     0.167751     0.925322     0.694077  Biso 1.000000     O
    O   1.0     0.680468     0.925314     0.694078  Biso 1.000000     O
   Zn   1.0     0.411286     0.577772     0.190330  Biso 1.000000    Zn
   Zn   1.0     0.924006     0.577774     0.190328  Biso 1.000000    Zn
   Zn   1.0     0.193529     0.698897     0.893255  Biso 1.000000    Zn
   Zn   1.0     0.706249     0.698895     0.893255  Biso 1.000000    Zn
