#======================================================================

# CRYSTAL DATA

#----------------------------------------------------------------------

data_VESTA_phase_1


_pd_phase_name                         MOF
_cell_length_a                         17.19100
_cell_length_b                         13.14100
_cell_length_c                         15.00800
_cell_angle_alpha                      63.99000
_cell_angle_beta                       84.05400
_cell_angle_gamma                      75.73200
_symmetry_space_group_name_H-M         "P 1"
_symmetry_Int_Tables_number            1

loop_
_symmetry_equiv_pos_as_xyz
   "x, y, z"

loop_
   _atom_site_label
   _atom_site_occupancy
   _atom_site_fract_x
   _atom_site_fract_y
   _atom_site_fract_z
   _atom_site_adp_type
   _atom_site_B_iso_or_equiv
   _atom_site_type_symbol
    H   1.0     0.417930     0.024764     0.736859  Biso 1.000000     H
    H   1.0     0.917925     0.024764     0.736860  Biso 1.000000     H
    H   1.0     0.046851     0.000000     0.646146  Biso 1.000000     H
    H   1.0     0.546845     0.000000     0.646146  Biso 1.000000     H
    H   1.0     0.417356     0.044062     0.398362  Biso 1.000000     H
    H   1.0     0.917351     0.044063     0.398361  Biso 1.000000     H
    H   1.0     0.289889     0.062121     0.489975  Biso 1.000000     H
    H   1.0     0.789884     0.062121     0.489975  Biso 1.000000     H
    H   1.0     0.121023     0.997000     0.511596  Biso 1.000000     H
    H   1.0     0.621018     0.996999     0.511597  Biso 1.000000     H
    H   1.0     0.031051     0.000000     0.339195  Biso 1.000000     H
    H   1.0     0.531046     0.000000     0.339194  Biso 1.000000     H
    H   1.0     0.235406     0.913838     0.468007  Biso 1.000000     H
    H   1.0     0.735401     0.913838     0.468007  Biso 1.000000     H
    H   1.0     0.362526     0.881798     0.380091  Biso 1.000000     H
    H   1.0     0.862521     0.881799     0.380091  Biso 1.000000     H
    H   1.0     0.242362     0.988740     0.116813  Biso 1.000000     H
    H   1.0     0.742356     0.988740     0.116813  Biso 1.000000     H
    H   1.0     0.109748     0.023304     0.194478  Biso 1.000000     H
    H   1.0     0.609743     0.023304     0.194478  Biso 1.000000     H
    H   1.0     0.229922     0.194501     0.058536  Biso 1.000000     H
    H   1.0     0.729916     0.194502     0.058536  Biso 1.000000     H
    H   1.0     0.275117     0.314712     0.123409  Biso 1.000000     H
    H   1.0     0.775114     0.314710     0.123408  Biso 1.000000     H
    H   1.0     0.273545     0.584792     0.825368  Biso 1.000000     H
    H   1.0     0.773541     0.584791     0.825368  Biso 1.000000     H
    H   1.0     0.228132     0.463340     0.762644  Biso 1.000000     H
    H   1.0     0.728125     0.463341     0.762644  Biso 1.000000     H
    H   1.0     0.313422     0.481069     0.101732  Biso 1.000000     H
    H   1.0     0.813419     0.481068     0.101732  Biso 1.000000     H
    H   1.0     0.304572     0.682136     0.892394  Biso 1.000000     H
    H   1.0     0.804567     0.682136     0.892394  Biso 1.000000     H
    H   1.0     0.330405     0.859941     0.880129  Biso 1.000000     H
    H   1.0     0.830400     0.859940     0.880129  Biso 1.000000     H
    H   1.0     0.371589     0.969857     0.957475  Biso 1.000000     H
    H   1.0     0.871584     0.969857     0.957475  Biso 1.000000     H
    H   1.0     0.400311     0.687127     0.233276  Biso 1.000000     H
    H   1.0     0.900306     0.687127     0.233276  Biso 1.000000     H
    H   1.0     0.358451     0.564203     0.168672  Biso 1.000000     H
    H   1.0     0.858446     0.564203     0.168672  Biso 1.000000     H
    H   1.0     0.165855     0.764109     0.263026  Biso 1.000000     H
    H   1.0     0.665850     0.764108     0.263025  Biso 1.000000     H
    H   1.0     0.295493     0.655811     0.353687  Biso 1.000000     H
    H   1.0     0.795488     0.655812     0.353686  Biso 1.000000     H
    H   1.0     0.168033     0.441934     0.600678  Biso 1.000000     H
    H   1.0     0.668028     0.441934     0.600678  Biso 1.000000     H
    H   1.0     0.039840     0.552396     0.509138  Biso 1.000000     H
    H   1.0     0.539835     0.552395     0.509138  Biso 1.000000     H
    H   1.0     0.370823     0.508980     0.487737  Biso 1.000000     H
    H   1.0     0.870818     0.508981     0.487737  Biso 1.000000     H
    H   1.0     0.282367     0.344573     0.659990  Biso 1.000000     H
    H   1.0     0.782362     0.344573     0.659989  Biso 1.000000     H
    H   1.0     0.485620     0.380934     0.530879  Biso 1.000000     H
    H   1.0     0.985615     0.380934     0.530879  Biso 1.000000     H
    H   1.0     0.113461     0.260529     0.618775  Biso 1.000000     H
    H   1.0     0.613456     0.260529     0.618775  Biso 1.000000     H
    H   1.0     0.495519     0.104528     0.882457  Biso 1.000000     H
    H   1.0     0.995513     0.104529     0.882457  Biso 1.000000     H
    H   1.0     0.362334     0.217118     0.804908  Biso 1.000000     H
    H   1.0     0.862329     0.217119     0.804908  Biso 1.000000     H
    H   1.0     0.479789     0.253163     0.941408  Biso 1.000000     H
    H   1.0     0.979784     0.253163     0.941408  Biso 1.000000     H
    H   1.0     0.026826     0.436737     0.876823  Biso 1.000000     H
    H   1.0     0.526822     0.436737     0.876823  Biso 1.000000     H
    H   1.0     0.021596     0.412427     0.173785  Biso 1.000000     H
    H   1.0     0.521591     0.412427     0.173785  Biso 1.000000     H
    H   1.0     0.474721     0.229473     0.236273  Biso 1.000000     H
    H   1.0     0.974717     0.229473     0.236274  Biso 1.000000     H
    H   1.0     0.066726     0.580231     0.898846  Biso 1.000000     H
    H   1.0     0.566722     0.580230     0.898846  Biso 1.000000     H
    H   1.0     0.050838     0.578196     0.105986  Biso 1.000000     H
    H   1.0     0.550832     0.578196     0.105985  Biso 1.000000     H
    H   1.0     0.078101     0.743114     0.117939  Biso 1.000000     H
    H   1.0     0.578096     0.743114     0.117939  Biso 1.000000     H
    H   1.0     0.121738     0.928453     0.040869  Biso 1.000000     H
    H   1.0     0.621732     0.928453     0.040869  Biso 1.000000     H
    H   1.0     0.154277     0.916876     0.767404  Biso 1.000000     H
    H   1.0     0.654273     0.916875     0.767404  Biso 1.000000     H
    H   1.0     0.110888     0.730631     0.831952  Biso 1.000000     H
    H   1.0     0.610883     0.730631     0.831951  Biso 1.000000     H
    C   1.0     0.267669     0.051537     0.673866  Biso 1.000000     C
    C   1.0     0.767664     0.051537     0.673866  Biso 1.000000     C
    C   1.0     0.345892     0.042143     0.619940  Biso 1.000000     C
    C   1.0     0.845887     0.042143     0.619940  Biso 1.000000     C
    C   1.0     0.418688     0.027536     0.663273  Biso 1.000000     C
    C   1.0     0.918683     0.027537     0.663272  Biso 1.000000     C
    C   1.0     0.490556     0.017635     0.612613  Biso 1.000000     C
    C   1.0     0.990551     0.017634     0.612613  Biso 1.000000     C
    C   1.0     0.492219     0.020753     0.517273  Biso 1.000000     C
    C   1.0     0.992214     0.020756     0.517273  Biso 1.000000     C
    C   1.0     0.418439     0.038012     0.473077  Biso 1.000000     C
    C   1.0     0.918434     0.038011     0.473078  Biso 1.000000     C
    C   1.0     0.346877     0.048431     0.523865  Biso 1.000000     C
    C   1.0     0.846872     0.048433     0.523865  Biso 1.000000     C
    C   1.0     0.069733     0.000000     0.470205  Biso 1.000000     C
    C   1.0     0.569728     0.000000     0.470205  Biso 1.000000     C
    C   1.0     0.082127     0.995267     0.382725  Biso 1.000000     C
    C   1.0     0.582121     0.995267     0.382725  Biso 1.000000     C
    C   1.0     0.160053     0.974504     0.338234  Biso 1.000000     C
    C   1.0     0.660047     0.974504     0.338233  Biso 1.000000     C
    C   1.0     0.233679     0.933439     0.389714  Biso 1.000000     C
    C   1.0     0.733673     0.933440     0.389713  Biso 1.000000     C
    C   1.0     0.305096     0.914853     0.341571  Biso 1.000000     C
    C   1.0     0.805090     0.914853     0.341571  Biso 1.000000     C
    C   1.0     0.238239     0.973128     0.194632  Biso 1.000000     C
    C   1.0     0.738234     0.973128     0.194632  Biso 1.000000     C
    C   1.0     0.164436     0.993226     0.238016  Biso 1.000000     C
    C   1.0     0.664430     0.993226     0.238016  Biso 1.000000     C
    C   1.0     0.200944     0.249746     0.864653  Biso 1.000000     C
    C   1.0     0.700946     0.249742     0.864652  Biso 1.000000     C
    C   1.0     0.226120     0.321262     0.906527  Biso 1.000000     C
    C   1.0     0.726108     0.321267     0.906528  Biso 1.000000     C
    C   1.0     0.239431     0.280068     0.008184  Biso 1.000000     C
    C   1.0     0.739431     0.280065     0.008183  Biso 1.000000     C
    C   1.0     0.264373     0.348052     0.044114  Biso 1.000000     C
    C   1.0     0.764364     0.348055     0.044114  Biso 1.000000     C
    C   1.0     0.277053     0.459196     0.979781  Biso 1.000000     C
    C   1.0     0.777053     0.459193     0.979780  Biso 1.000000     C
    C   1.0     0.263494     0.499856     0.877419  Biso 1.000000     C
    C   1.0     0.763485     0.499858     0.877419  Biso 1.000000     C
    C   1.0     0.238305     0.432179     0.841665  Biso 1.000000     C
    C   1.0     0.738305     0.432176     0.841664  Biso 1.000000     C
    C   1.0     0.303247     0.526159     0.021628  Biso 1.000000     C
    C   1.0     0.803243     0.526159     0.021628  Biso 1.000000     C
    C   1.0     0.315221     0.635487     0.972288  Biso 1.000000     C
    C   1.0     0.815217     0.635486     0.972287  Biso 1.000000     C
    C   1.0     0.340623     0.700141     0.017046  Biso 1.000000     C
    C   1.0     0.840617     0.700142     0.017046  Biso 1.000000     C
    C   1.0     0.345874     0.816447     0.958735  Biso 1.000000     C
    C   1.0     0.845872     0.816446     0.958735  Biso 1.000000     C
    C   1.0     0.369040     0.879134     0.001365  Biso 1.000000     C
    C   1.0     0.869034     0.879135     0.001365  Biso 1.000000     C
    C   1.0     0.383983     0.720842     0.155382  Biso 1.000000     C
    C   1.0     0.883976     0.720842     0.155382  Biso 1.000000     C
    C   1.0     0.360629     0.653416     0.118330  Biso 1.000000     C
    C   1.0     0.860626     0.653415     0.118329  Biso 1.000000     C
    C   1.0     0.016116     0.727338     0.325540  Biso 1.000000     C
    C   1.0     0.516111     0.727339     0.325540  Biso 1.000000     C
    C   1.0     0.094760     0.663551     0.379534  Biso 1.000000     C
    C   1.0     0.594755     0.663549     0.379533  Biso 1.000000     C
    C   1.0     0.167200     0.692670     0.336430  Biso 1.000000     C
    C   1.0     0.667195     0.692671     0.336430  Biso 1.000000     C
    C   1.0     0.239485     0.631623     0.387034  Biso 1.000000     C
    C   1.0     0.739480     0.631621     0.387032  Biso 1.000000     C
    C   1.0     0.241960     0.538574     0.482139  Biso 1.000000     C
    C   1.0     0.741954     0.538577     0.482140  Biso 1.000000     C
    C   1.0     0.168533     0.511241     0.526131  Biso 1.000000     C
    C   1.0     0.668528     0.511239     0.526129  Biso 1.000000     C
    C   1.0     0.096546     0.572935     0.475402  Biso 1.000000     C
    C   1.0     0.596541     0.572936     0.475402  Biso 1.000000     C
    C   1.0     0.319885     0.473952     0.529095  Biso 1.000000     C
    C   1.0     0.819880     0.473952     0.529094  Biso 1.000000     C
    C   1.0     0.333073     0.377577     0.616452  Biso 1.000000     C
    C   1.0     0.833067     0.377577     0.616451  Biso 1.000000     C
    C   1.0     0.411390     0.312046     0.660881  Biso 1.000000     C
    C   1.0     0.911385     0.312046     0.660881  Biso 1.000000     C
    C   1.0     0.484569     0.322258     0.609277  Biso 1.000000     C
    C   1.0     0.984564     0.322258     0.609277  Biso 1.000000     C
    C   1.0     0.056391     0.255270     0.657442  Biso 1.000000     C
    C   1.0     0.556386     0.255270     0.657442  Biso 1.000000     C
    C   1.0     0.490808     0.166809     0.804569  Biso 1.000000     C
    C   1.0     0.990802     0.166810     0.804569  Biso 1.000000     C
    C   1.0     0.416632     0.230475     0.761222  Biso 1.000000     C
    C   1.0     0.916627     0.230476     0.761221  Biso 1.000000     C
    C   1.0     0.448232     0.116938     0.134687  Biso 1.000000     C
    C   1.0     0.948227     0.116937     0.134688  Biso 1.000000     C
    C   1.0     0.474189     0.229723     0.092878  Biso 1.000000     C
    C   1.0     0.974183     0.229723     0.092878  Biso 1.000000     C
    C   1.0     0.488952     0.288829     0.991586  Biso 1.000000     C
    C   1.0     0.988946     0.288829     0.991587  Biso 1.000000     C
    C   1.0     0.014866     0.391940     0.955795  Biso 1.000000     C
    C   1.0     0.514861     0.391940     0.955795  Biso 1.000000     C
    C   1.0     0.026954     0.439374     0.019897  Biso 1.000000     C
    C   1.0     0.526950     0.439374     0.019897  Biso 1.000000     C
    C   1.0     0.011897     0.379107     0.121884  Biso 1.000000     C
    C   1.0     0.511892     0.379107     0.121884  Biso 1.000000     C
    C   1.0     0.485917     0.276359     0.157508  Biso 1.000000     C
    C   1.0     0.985912     0.276359     0.157509  Biso 1.000000     C
    C   1.0     0.054014     0.547471     0.978220  Biso 1.000000     C
    C   1.0     0.554009     0.547471     0.978219  Biso 1.000000     C
    C   1.0     0.064062     0.609164     0.026886  Biso 1.000000     C
    C   1.0     0.564057     0.609164     0.026886  Biso 1.000000     C
    C   1.0     0.090573     0.717687     0.982312  Biso 1.000000     C
    C   1.0     0.590568     0.717687     0.982312  Biso 1.000000     C
    C   1.0     0.095042     0.776686     0.039984  Biso 1.000000     C
    C   1.0     0.595036     0.776686     0.039983  Biso 1.000000     C
    C   1.0     0.119525     0.880995     0.997486  Biso 1.000000     C
    C   1.0     0.619520     0.880994     0.997486  Biso 1.000000     C
    C   1.0     0.136844     0.873973     0.844822  Biso 1.000000     C
    C   1.0     0.636840     0.873973     0.844822  Biso 1.000000     C
    C   1.0     0.112468     0.770324     0.881785  Biso 1.000000     C
    C   1.0     0.612464     0.770324     0.881784  Biso 1.000000     C
    N   1.0     0.308265     0.934462     0.244990  Biso 1.000000     N
    N   1.0     0.808260     0.934462     0.244990  Biso 1.000000     N
    N   1.0     0.388239     0.832933     0.098431  Biso 1.000000     N
    N   1.0     0.888235     0.832933     0.098430  Biso 1.000000     N
    N   1.0     0.060437     0.178256     0.754149  Biso 1.000000     N
    N   1.0     0.560432     0.178256     0.754149  Biso 1.000000     N
    N   1.0     0.140537     0.929995     0.901169  Biso 1.000000     N
    N   1.0     0.640532     0.929995     0.901169  Biso 1.000000     N
    O   1.0     0.272212     0.057036     0.757899  Biso 1.000000     O
    O   1.0     0.772207     0.057036     0.757900  Biso 1.000000     O
    O   1.0     0.204464     0.052610     0.638528  Biso 1.000000     O
    O   1.0     0.704459     0.052610     0.638528  Biso 1.000000     O
    O   1.0     0.196382     0.143850     0.924222  Biso 1.000000     O
    O   1.0     0.696374     0.143851     0.924222  Biso 1.000000     O
    O   1.0     0.186669     0.292643     0.773131  Biso 1.000000     O
    O   1.0     0.686662     0.292644     0.773131  Biso 1.000000     O
    O   1.0     0.019877     0.817730     0.241894  Biso 1.000000     O
    O   1.0     0.519871     0.817730     0.241893  Biso 1.000000     O
    O   1.0     0.453259     0.692561     0.360542  Biso 1.000000     O
    O   1.0     0.953254     0.692561     0.360542  Biso 1.000000     O
    O   1.0     0.443443     0.070535     0.075293  Biso 1.000000     O
    O   1.0     0.943437     0.070535     0.075293  Biso 1.000000     O
    O   1.0     0.433605     0.068912     0.225975  Biso 1.000000     O
    O   1.0     0.933599     0.068912     0.225975  Biso 1.000000     O
   Zn   1.0     0.416946     0.917918     0.175878  Biso 1.000000    Zn
   Zn   1.0     0.916941     0.917918     0.175878  Biso 1.000000    Zn
   Zn   1.0     0.169898     0.091952     0.823425  Biso 1.000000    Zn
   Zn   1.0     0.669893     0.091951     0.823425  Biso 1.000000    Zn
