#======================================================================

# CRYSTAL DATA

#----------------------------------------------------------------------

data_VESTA_phase_1


_pd_phase_name                         MOF
_cell_length_a                         13.70100
_cell_length_b                         13.84600
_cell_length_c                         14.05700
_cell_angle_alpha                      108.95000
_cell_angle_beta                       90.08700
_cell_angle_gamma                      89.96700
_symmetry_space_group_name_H-M         "P 1"
_symmetry_Int_Tables_number            1

loop_
_symmetry_equiv_pos_as_xyz
   "x, y, z"

loop_
   _atom_site_label
   _atom_site_occupancy
   _atom_site_fract_x
   _atom_site_fract_y
   _atom_site_fract_z
   _atom_site_adp_type
   _atom_site_B_iso_or_equiv
   _atom_site_type_symbol
    H   1.0     0.241785     0.686727     0.050424  Biso 1.000000     H
    H   1.0     0.168730     0.863371     0.117013  Biso 1.000000     H
    H   1.0     0.457046     0.974263     0.224649  Biso 1.000000     H
    H   1.0     0.515553     0.794808     0.158929  Biso 1.000000     H
    H   1.0     0.421311     0.229851     0.113975  Biso 1.000000     H
    H   1.0     0.272454     0.509620     0.267901  Biso 1.000000     H
    H   1.0     0.189064     0.232022     0.322362  Biso 1.000000     H
    H   1.0     0.388207     0.086907     0.158759  Biso 1.000000     H
    H   1.0     0.741642     0.317647     0.449902  Biso 1.000000     H
    H   1.0     0.668387     0.141005     0.384530  Biso 1.000000     H
    H   1.0     0.955932     0.029516     0.275336  Biso 1.000000     H
    H   1.0     0.014681     0.209032     0.339959  Biso 1.000000     H
    H   1.0     0.921301     0.774241     0.387119  Biso 1.000000     H
    H   1.0     0.772567     0.494509     0.232537  Biso 1.000000     H
    H   1.0     0.688497     0.772357     0.178739  Biso 1.000000     H
    H   1.0     0.887694     0.917454     0.342614  Biso 1.000000     H
    H   1.0     0.758023     0.316545     0.950128  Biso 1.000000     H
    H   1.0     0.830871     0.139727     0.884302  Biso 1.000000     H
    H   1.0     0.542410     0.028867     0.777144  Biso 1.000000     H
    H   1.0     0.484102     0.208405     0.842224  Biso 1.000000     H
    H   1.0     0.578576     0.772393     0.886405  Biso 1.000000     H
    H   1.0     0.728754     0.493531     0.732305  Biso 1.000000     H
    H   1.0     0.810823     0.771788     0.678490  Biso 1.000000     H
    H   1.0     0.611244     0.915835     0.841988  Biso 1.000000     H
    H   1.0     0.258795     0.685865     0.550688  Biso 1.000000     H
    H   1.0     0.332062     0.862475     0.616414  Biso 1.000000     H
    H   1.0     0.044625     0.973755     0.726157  Biso 1.000000     H
    H   1.0     0.985843     0.794259     0.661107  Biso 1.000000     H
    H   1.0     0.078948     0.228661     0.613238  Biso 1.000000     H
    H   1.0     0.227079     0.508808     0.767724  Biso 1.000000     H
    H   1.0     0.311309     0.231402     0.822350  Biso 1.000000     H
    H   1.0     0.112304     0.085819     0.658527  Biso 1.000000     H
    C   1.0     0.285756     0.753216     0.090258  Biso 1.000000     C
    C   1.0     0.246135     0.850734     0.126143  Biso 1.000000     C
    C   1.0     0.307258     0.933603     0.173062  Biso 1.000000     C
    C   1.0     0.405962     0.914014     0.185589  Biso 1.000000     C
    C   1.0     0.439835     0.813984     0.149516  Biso 1.000000     C
    C   1.0     0.263653     0.039200     0.208663  Biso 1.000000     C
    C   1.0     0.307519     0.218365     0.217513  Biso 1.000000     C
    C   1.0     0.365647     0.269870     0.167771  Biso 1.000000     C
    C   1.0     0.352322     0.374162     0.184595  Biso 1.000000     C
    C   1.0     0.282292     0.428200     0.253987  Biso 1.000000     C
    C   1.0     0.224039     0.376506     0.303277  Biso 1.000000     C
    C   1.0     0.235517     0.271456     0.284556  Biso 1.000000     C
    C   1.0     0.411420     0.424909     0.124043  Biso 1.000000     C
    C   1.0     0.146451     0.431289     0.376309  Biso 1.000000     C
    C   1.0     0.785365     0.251036     0.409952  Biso 1.000000     C
    C   1.0     0.745657     0.153530     0.374776  Biso 1.000000     C
    C   1.0     0.806569     0.070575     0.327699  Biso 1.000000     C
    C   1.0     0.905111     0.089952     0.314468  Biso 1.000000     C
    C   1.0     0.939055     0.189973     0.349859  Biso 1.000000     C
    C   1.0     0.762979     0.965009     0.292480  Biso 1.000000     C
    C   1.0     0.807160     0.785876     0.283621  Biso 1.000000     C
    C   1.0     0.865570     0.734284     0.333218  Biso 1.000000     C
    C   1.0     0.852412     0.629936     0.316069  Biso 1.000000     C
    C   1.0     0.782300     0.575953     0.246594  Biso 1.000000     C
    C   1.0     0.723828     0.627698     0.197393  Biso 1.000000     C
    C   1.0     0.735107     0.732808     0.216427  Biso 1.000000     C
    C   1.0     0.911719     0.578915     0.376320  Biso 1.000000     C
    C   1.0     0.646195     0.572793     0.124295  Biso 1.000000     C
    C   1.0     0.713987     0.250006     0.910585  Biso 1.000000     C
    C   1.0     0.753487     0.152423     0.875130  Biso 1.000000     C
    C   1.0     0.692281     0.069567     0.828434  Biso 1.000000     C
    C   1.0     0.593566     0.089141     0.815966  Biso 1.000000     C
    C   1.0     0.559817     0.189232     0.851650  Biso 1.000000     C
    C   1.0     0.735948     0.964037     0.792768  Biso 1.000000     C
    C   1.0     0.692388     0.784678     0.783196  Biso 1.000000     C
    C   1.0     0.634457     0.732763     0.832688  Biso 1.000000     C
    C   1.0     0.648305     0.628520     0.815694  Biso 1.000000     C
    C   1.0     0.718514     0.574914     0.746325  Biso 1.000000     C
    C   1.0     0.776410     0.626988     0.697151  Biso 1.000000     C
    C   1.0     0.764544     0.732017     0.716106  Biso 1.000000     C
    C   1.0     0.589643     0.577252     0.876022  Biso 1.000000     C
    C   1.0     0.853885     0.572506     0.623902  Biso 1.000000     C
    C   1.0     0.215082     0.752425     0.590807  Biso 1.000000     C
    C   1.0     0.254799     0.849932     0.626194  Biso 1.000000     C
    C   1.0     0.193891     0.932856     0.673409  Biso 1.000000     C
    C   1.0     0.095407     0.913378     0.686800  Biso 1.000000     C
    C   1.0     0.061446     0.813376     0.651178  Biso 1.000000     C
    C   1.0     0.237301     0.038521     0.708420  Biso 1.000000     C
    C   1.0     0.192818     0.217500     0.717180  Biso 1.000000     C
    C   1.0     0.134505     0.268840     0.667249  Biso 1.000000     C
    C   1.0     0.147537     0.373178     0.684218  Biso 1.000000     C
    C   1.0     0.217483     0.427369     0.753798  Biso 1.000000     C
    C   1.0     0.275974     0.375859     0.803227  Biso 1.000000     C
    C   1.0     0.264731     0.270780     0.784459  Biso 1.000000     C
    C   1.0     0.088362     0.423961     0.623620  Biso 1.000000     C
    C   1.0     0.353597     0.430962     0.876274  Biso 1.000000     C
    N   1.0     0.381191     0.735007     0.101437  Biso 1.000000     N
    N   1.0     0.325607     0.113009     0.197681  Biso 1.000000     N
    N   1.0     0.880634     0.269047     0.398019  Biso 1.000000     N
    N   1.0     0.825007     0.891290     0.303710  Biso 1.000000     N
    N   1.0     0.618598     0.268234     0.899270  Biso 1.000000     N
    N   1.0     0.674006     0.890004     0.803269  Biso 1.000000     N
    N   1.0     0.119806     0.734363     0.602683  Biso 1.000000     N
    N   1.0     0.175004     0.112106     0.697351  Biso 1.000000     N
    O   1.0     0.179936     0.054417     0.242617  Biso 1.000000     O
    O   1.0     0.479784     0.372042     0.070896  Biso 1.000000     O
    O   1.0     0.386977     0.515220     0.129144  Biso 1.000000     O
    O   1.0     0.162248     0.523658     0.429380  Biso 1.000000     O
    O   1.0     0.070725     0.379113     0.379236  Biso 1.000000     O
    O   1.0     0.679243     0.949686     0.258344  Biso 1.000000     O
    O   1.0     0.980450     0.631458     0.429306  Biso 1.000000     O
    O   1.0     0.887033     0.488693     0.371165  Biso 1.000000     O
    O   1.0     0.661849     0.480279     0.071658  Biso 1.000000     O
    O   1.0     0.570597     0.625074     0.120888  Biso 1.000000     O
    O   1.0     0.819746     0.949046     0.758997  Biso 1.000000     O
    O   1.0     0.520287     0.629154     0.928287  Biso 1.000000     O
    O   1.0     0.615387     0.487473     0.871534  Biso 1.000000     O
    O   1.0     0.838150     0.480114     0.570854  Biso 1.000000     O
    O   1.0     0.929454     0.624851     0.620850  Biso 1.000000     O
    O   1.0     0.321131     0.054131     0.742220  Biso 1.000000     O
    O   1.0     0.019793     0.371262     0.570505  Biso 1.000000     O
    O   1.0     0.112907     0.514216     0.628759  Biso 1.000000     O
    O   1.0     0.337624     0.523278     0.929315  Biso 1.000000     O
    O   1.0     0.429631     0.379075     0.879100  Biso 1.000000     O
   Zn   1.0     0.558196     0.412038     0.962957  Biso 1.000000    Zn
   Zn   1.0     0.058234     0.591385     0.537486  Biso 1.000000    Zn
   Zn   1.0     0.441895     0.591407     0.037334  Biso 1.000000    Zn
   Zn   1.0     0.941940     0.412202     0.462706  Biso 1.000000    Zn
