#======================================================================

# CRYSTAL DATA

#----------------------------------------------------------------------

data_VESTA_phase_1


_pd_phase_name                         MOF
_cell_length_a                         12.53600
_cell_length_b                         15.65600
_cell_length_c                         15.66100
_cell_angle_alpha                      119.94400
_cell_angle_beta                       89.99300
_cell_angle_gamma                      90.04300
_symmetry_space_group_name_H-M         "P 1"
_symmetry_Int_Tables_number            1

loop_
_symmetry_equiv_pos_as_xyz
   "x, y, z"

loop_
   _atom_site_label
   _atom_site_occupancy
   _atom_site_fract_x
   _atom_site_fract_y
   _atom_site_fract_z
   _atom_site_adp_type
   _atom_site_B_iso_or_equiv
   _atom_site_type_symbol
    H   1.0     0.114799     0.867602     0.994603  Biso 1.000000     H
    H   1.0     0.614807     0.867602     0.994603  Biso 1.000000     H
    H   1.0     0.474805     0.545720     0.608362  Biso 1.000000     H
    H   1.0     0.974812     0.545720     0.608362  Biso 1.000000     H
    H   1.0     0.218932    -0.002868     0.135443  Biso 1.000000     H
    H   1.0     0.718940    -0.002868     0.135442  Biso 1.000000     H
    H   1.0     0.218881     0.335764     0.530895  Biso 1.000000     H
    H   1.0     0.718888     0.335764     0.530895  Biso 1.000000     H
    H   1.0     0.474412     0.787051     0.057591  Biso 1.000000     H
    H   1.0     0.974419     0.787050     0.057592  Biso 1.000000     H
    H   1.0     0.114713     0.465689     0.671215  Biso 1.000000     H
    H   1.0     0.614720     0.465689     0.671214  Biso 1.000000     H
    H   1.0     0.358785     0.662702     0.921881  Biso 1.000000     H
    H   1.0     0.858792     0.662701     0.921882  Biso 1.000000     H
    H   1.0     0.359229     0.670410     0.743657  Biso 1.000000     H
    H   1.0     0.859236     0.670410     0.743657  Biso 1.000000     H
    H   1.0     0.447891     0.127399     0.132470  Biso 1.000000     H
    H   1.0     0.947899     0.127398     0.132470  Biso 1.000000     H
    H   1.0     0.307832     0.062676     0.454138  Biso 1.000000     H
    H   1.0     0.807840     0.062676     0.454138  Biso 1.000000     H
    H   1.0     0.052349     0.138332     0.000000  Biso 1.000000     H
    H   1.0     0.552357     0.138332     0.000000  Biso 1.000000     H
    H   1.0     0.052391     0.195063     0.664214  Biso 1.000000     H
    H   1.0     0.552399     0.195063     0.664215  Biso 1.000000     H
    H   1.0     0.307738     0.270786     0.213128  Biso 1.000000     H
    H   1.0     0.807746     0.270785     0.213129  Biso 1.000000     H
    H   1.0     0.447960     0.205482     0.534290  Biso 1.000000     H
    H   1.0     0.947967     0.205481     0.534290  Biso 1.000000     H
    H   1.0     0.191815     0.259722     0.337561  Biso 1.000000     H
    H   1.0     0.691823     0.259721     0.337561  Biso 1.000000     H
    H   1.0     0.191967     0.073291     0.329452  Biso 1.000000     H
    H   1.0     0.691974     0.073291     0.329452  Biso 1.000000     H
    H   1.0     0.281480     0.004964     0.872847  Biso 1.000000     H
    H   1.0     0.781487     0.004964     0.872848  Biso 1.000000     H
    H   1.0     0.141324     0.391468     0.937338  Biso 1.000000     H
    H   1.0     0.641332     0.391468     0.937337  Biso 1.000000     H
    H   1.0     0.385983     0.864301     0.861605  Biso 1.000000     H
    H   1.0     0.885991     0.864301     0.861606  Biso 1.000000     H
    H   1.0     0.385829     0.469370     0.804993  Biso 1.000000     H
    H   1.0     0.885836     0.469370     0.804993  Biso 1.000000     H
    H   1.0     0.140995     0.942835     0.729136  Biso 1.000000     H
    H   1.0     0.641003     0.942835     0.729136  Biso 1.000000     H
    H   1.0     0.281359     0.328833     0.794399  Biso 1.000000     H
    H   1.0     0.781367     0.328833     0.794399  Biso 1.000000     H
    H   1.0     0.025014     0.078304     0.740448  Biso 1.000000     H
    H   1.0     0.525022     0.078303     0.740448  Biso 1.000000     H
    H   1.0     0.025428     0.256006     0.926573  Biso 1.000000     H
    H   1.0     0.525436     0.256006     0.926572  Biso 1.000000     H
    C   1.0     0.425181     0.980611     0.185852  Biso 1.000000     C
    C   1.0     0.925189     0.980611     0.185852  Biso 1.000000     C
    C   1.0     0.425273     0.352081     0.480495  Biso 1.000000     C
    C   1.0     0.925281     0.352081     0.480495  Biso 1.000000     C
    C   1.0     0.356056     0.902395     0.106074  Biso 1.000000     C
    C   1.0     0.856064     0.902395     0.106074  Biso 1.000000     C
    C   1.0     0.194730     0.852598     0.010848  Biso 1.000000     C
    C   1.0     0.694738     0.852598     0.010847  Biso 1.000000     C
    C   1.0     0.356199     0.430444     0.560069  Biso 1.000000     C
    C   1.0     0.856207     0.430444     0.560069  Biso 1.000000     C
    C   1.0     0.395157     0.526046     0.620410  Biso 1.000000     C
    C   1.0     0.895165     0.526046     0.620410  Biso 1.000000     C
    C   1.0     0.253184     0.924616     0.088700  Biso 1.000000     C
    C   1.0     0.753192     0.924616     0.088700  Biso 1.000000     C
    C   1.0     0.253222     0.408355     0.577443  Biso 1.000000     C
    C   1.0     0.753230     0.408355     0.577443  Biso 1.000000     C
    C   1.0     0.394869     0.806841     0.045528  Biso 1.000000     C
    C   1.0     0.894877     0.806841     0.045528  Biso 1.000000     C
    C   1.0     0.194755     0.480582     0.655016  Biso 1.000000     C
    C   1.0     0.694762     0.480582     0.655016  Biso 1.000000     C
    C   1.0     0.331193     0.737804     0.969912  Biso 1.000000     C
    C   1.0     0.831200     0.737804     0.969913  Biso 1.000000     C
    C   1.0     0.331484     0.595281     0.695780  Biso 1.000000     C
    C   1.0     0.831492     0.595281     0.695780  Biso 1.000000     C
    C   1.0     0.258580     0.205260     0.019418  Biso 1.000000     C
    C   1.0     0.758588     0.205260     0.019419  Biso 1.000000     C
    C   1.0     0.258626     0.128413     0.647857  Biso 1.000000     C
    C   1.0     0.758634     0.128413     0.647858  Biso 1.000000     C
    C   1.0     0.189404     0.203831     0.097685  Biso 1.000000     C
    C   1.0     0.689411     0.203831     0.097686  Biso 1.000000     C
    C   1.0     0.027875     0.158604     0.147492  Biso 1.000000     C
    C   1.0     0.527883     0.158604     0.147493  Biso 1.000000     C
    C   1.0     0.189467     0.129603     0.569464  Biso 1.000000     C
    C   1.0     0.689475     0.129603     0.569464  Biso 1.000000     C
    C   1.0     0.228242     0.094382     0.473844  Biso 1.000000     C
    C   1.0     0.728250     0.094382     0.473845  Biso 1.000000     C
    C   1.0     0.086488     0.164252     0.075420  Biso 1.000000     C
    C   1.0     0.586496     0.164253     0.075421  Biso 1.000000     C
    C   1.0     0.086560     0.169052     0.591595  Biso 1.000000     C
    C   1.0     0.586568     0.169052     0.591595  Biso 1.000000     C
    C   1.0     0.228151     0.238964     0.193310  Biso 1.000000     C
    C   1.0     0.728159     0.238963     0.193310  Biso 1.000000     C
    C   1.0     0.027956     0.174426     0.519383  Biso 1.000000     C
    C   1.0     0.527964     0.174426     0.519383  Biso 1.000000     C
    C   1.0     0.164319     0.232554     0.262392  Biso 1.000000     C
    C   1.0     0.664327     0.232554     0.262392  Biso 1.000000     C
    C   1.0     0.164437     0.100535     0.404619  Biso 1.000000     C
    C   1.0     0.664445     0.100535     0.404620  Biso 1.000000     C
    C   1.0     0.091984     0.814209     0.794396  Biso 1.000000     C
    C   1.0     0.591992     0.814209     0.794397  Biso 1.000000     C
    C   1.0     0.092055     0.519693     0.871727  Biso 1.000000     C
    C   1.0     0.592063     0.519692     0.871726  Biso 1.000000     C
    C   1.0     0.022824     0.893984     0.796037  Biso 1.000000     C
    C   1.0     0.522831     0.893984     0.796037  Biso 1.000000     C
    C   1.0     0.361399     0.988920     0.841563  Biso 1.000000     C
    C   1.0     0.861406     0.988920     0.841563  Biso 1.000000     C
    C   1.0     0.022909     0.439990     0.870452  Biso 1.000000     C
    C   1.0     0.522916     0.439990     0.870452  Biso 1.000000     C
    C   1.0     0.061710     0.379487     0.905617  Biso 1.000000     C
    C   1.0     0.561717     0.379487     0.905617  Biso 1.000000     C
    C   1.0     0.420027     0.911161     0.835742  Biso 1.000000     C
    C   1.0     0.920034     0.911161     0.835742  Biso 1.000000     C
    C   1.0     0.419984     0.422679     0.830969  Biso 1.000000     C
    C   1.0     0.919992     0.422679     0.830969  Biso 1.000000     C
    C   1.0     0.061481     0.954685     0.761010  Biso 1.000000     C
    C   1.0     0.561489     0.954685     0.761010  Biso 1.000000     C
    C   1.0     0.361371     0.345004     0.825511  Biso 1.000000     C
    C   1.0     0.861379     0.345004     0.825511  Biso 1.000000     C
    C   1.0     0.497627     0.030167     0.767573  Biso 1.000000     C
    C   1.0     0.997634     0.030168     0.767573  Biso 1.000000     C
    C   1.0     0.497895     0.304022     0.899382  Biso 1.000000     C
    C   1.0     0.997902     0.304023     0.899382  Biso 1.000000     C
    N   1.0     0.232886     0.760724     0.951750  Biso 1.000000     N
    N   1.0     0.732893     0.760724     0.951750  Biso 1.000000     N
    N   1.0     0.233008     0.572528     0.713874  Biso 1.000000     N
    N   1.0     0.733016     0.572528     0.713874  Biso 1.000000     N
    N   1.0     0.065946     0.191531     0.239444  Biso 1.000000     N
    N   1.0     0.565954     0.191530     0.239444  Biso 1.000000     N
    N   1.0     0.066038     0.141372     0.427423  Biso 1.000000     N
    N   1.0     0.566046     0.141372     0.427423  Biso 1.000000     N
    N   1.0     0.399347     0.048074     0.808664  Biso 1.000000     N
    N   1.0     0.899355     0.048074     0.808665  Biso 1.000000     N
    N   1.0     0.399468     0.286005     0.858523  Biso 1.000000     N
    N   1.0     0.899476     0.286006     0.858523  Biso 1.000000     N
    O   1.0     0.374961     0.271501     0.419785  Biso 1.000000     O
    O   1.0     0.874969     0.271501     0.419785  Biso 1.000000     O
    O   1.0     0.374890     0.061003     0.246809  Biso 1.000000     O
    O   1.0     0.874898     0.061003     0.246809  Biso 1.000000     O
    O   1.0     0.022735     0.366543     0.479134  Biso 1.000000     O
    O   1.0     0.522743     0.366543     0.479133  Biso 1.000000     O
    O   1.0     0.022644     0.966244     0.187163  Biso 1.000000     O
    O   1.0     0.522651     0.966243     0.187163  Biso 1.000000     O
    O   1.0     0.208352     0.148184     0.728415  Biso 1.000000     O
    O   1.0     0.708360     0.148184     0.728415  Biso 1.000000     O
    O   1.0     0.208279     0.185730     0.938943  Biso 1.000000     O
    O   1.0     0.708287     0.185730     0.938944  Biso 1.000000     O
    O   1.0     0.356095     0.112771     0.633474  Biso 1.000000     O
    O   1.0     0.856103     0.112770     0.633474  Biso 1.000000     O
    O   1.0     0.356077     0.220890     0.033789  Biso 1.000000     O
    O   1.0     0.856085     0.220891     0.033789  Biso 1.000000     O
    O   1.0     0.041782     0.580357     0.851733  Biso 1.000000     O
    O   1.0     0.541790     0.580357     0.851733  Biso 1.000000     O
    O   1.0     0.041701     0.753108     0.813846  Biso 1.000000     O
    O   1.0     0.541708     0.753108     0.813846  Biso 1.000000     O
    O   1.0     0.189490     0.521180     0.887657  Biso 1.000000     O
    O   1.0     0.689498     0.521180     0.887657  Biso 1.000000     O
    O   1.0     0.189452     0.813030     0.778733  Biso 1.000000     O
    O   1.0     0.689460     0.813030     0.778734  Biso 1.000000     O
   Zn   1.0     0.476940     0.166228     0.333346  Biso 1.000000    Zn
   Zn   1.0     0.976948     0.166228     0.333346  Biso 1.000000    Zn
   Zn   1.0     0.310303     0.167084     0.833783  Biso 1.000000    Zn
   Zn   1.0     0.810310     0.167085     0.833783  Biso 1.000000    Zn
   Zn   1.0     0.143812     0.666746     0.832622  Biso 1.000000    Zn
   Zn   1.0     0.643820     0.666746     0.832622  Biso 1.000000    Zn
