#======================================================================

# CRYSTAL DATA

#----------------------------------------------------------------------

data_VESTA_phase_1


_pd_phase_name                         MOF
_cell_length_a                         17.22400
_cell_length_b                         17.23400
_cell_length_c                         17.29200
_cell_angle_alpha                      90.54800
_cell_angle_beta                       90.00000
_cell_angle_gamma                      90.00000
_symmetry_space_group_name_H-M         "P 1"
_symmetry_Int_Tables_number            1

loop_
_symmetry_equiv_pos_as_xyz
   "x, y, z"

loop_
   _atom_site_label
   _atom_site_occupancy
   _atom_site_fract_x
   _atom_site_fract_y
   _atom_site_fract_z
   _atom_site_adp_type
   _atom_site_B_iso_or_equiv
   _atom_site_type_symbol
    H   1.0     0.709158     0.994403     0.981214  Biso 1.000000     H
    H   1.0     0.751204     0.754546     0.110663  Biso 1.000000     H
    H   1.0     0.678828     0.687684     0.203959  Biso 1.000000     H
    H   1.0     0.559040     0.720573     0.258869  Biso 1.000000     H
    H   1.0     0.480430     0.828475     0.233987  Biso 1.000000     H
    H   1.0     0.500245     0.928915     0.145650  Biso 1.000000     H
    H   1.0     0.671869     0.227220     0.787153  Biso 1.000000     H
    H   1.0     0.574278     0.337461     0.545784  Biso 1.000000     H
    H   1.0     0.453227     0.387062     0.506390  Biso 1.000000     H
    H   1.0     0.337410     0.394878     0.576161  Biso 1.000000     H
    H   1.0     0.312827     0.359343     0.703984  Biso 1.000000     H
    H   1.0     0.398803     0.307471     0.795681  Biso 1.000000     H
    H   1.0     0.714236     0.279989     0.275580  Biso 1.000000     H
    H   1.0     0.949359     0.125087     0.317168  Biso 1.000000     H
    H   1.0     0.000000     0.032225     0.242580  Biso 1.000000     H
    H   1.0     0.987711     0.000000     0.119183  Biso 1.000000     H
    H   1.0     0.880535     0.013325     0.040197  Biso 1.000000     H
    H   1.0     0.780242     0.102747     0.062133  Biso 1.000000     H
    H   1.0     0.405841     0.000000     0.276588  Biso 1.000000     H
    H   1.0     0.564015     0.955052     0.507468  Biso 1.000000     H
    H   1.0     0.659150     0.009335     0.573039  Biso 1.000000     H
    H   1.0     0.708480     0.132149     0.544398  Biso 1.000000     H
    H   1.0     0.675610     0.214030     0.442247  Biso 1.000000     H
    H   1.0     0.583252     0.195258     0.344304  Biso 1.000000     H
    H   1.0     0.461391     0.486216     0.236192  Biso 1.000000     H
    H   1.0     0.377229     0.471536     0.980572  Biso 1.000000     H
    H   1.0     0.324354     0.561878     0.894316  Biso 1.000000     H
    H   1.0     0.288574     0.690669     0.917390  Biso 1.000000     H
    H   1.0     0.295969     0.763068     0.000000  Biso 1.000000     H
    H   1.0     0.346328     0.725654     0.137592  Biso 1.000000     H
    H   1.0     0.664761     0.527485     0.482234  Biso 1.000000     H
    H   1.0     0.880610     0.596080     0.654524  Biso 1.000000     H
    H   1.0     0.904591     0.699270     0.740808  Biso 1.000000     H
    H   1.0     0.828029     0.808757     0.766785  Biso 1.000000     H
    H   1.0     0.706342     0.840724     0.716122  Biso 1.000000     H
    H   1.0     0.630507     0.772207     0.625495  Biso 1.000000     H
    H   1.0     0.200273     0.022932     0.034176  Biso 1.000000     H
    H   1.0     0.241538     0.262517     0.904385  Biso 1.000000     H
    H   1.0     0.169319     0.329234     0.810854  Biso 1.000000     H
    H   1.0     0.049670     0.296226     0.755734  Biso 1.000000     H
    H   1.0     0.987748     0.188291     0.780623  Biso 1.000000     H
    H   1.0     0.000000     0.088138     0.869290  Biso 1.000000     H
    H   1.0     0.164338     0.790385     0.228220  Biso 1.000000     H
    H   1.0     0.066503     0.680349     0.469627  Biso 1.000000     H
    H   1.0     0.962122     0.630791     0.508915  Biso 1.000000     H
    H   1.0     0.846381     0.622893     0.439028  Biso 1.000000     H
    H   1.0     0.821928     0.658364     0.311146  Biso 1.000000     H
    H   1.0     0.908009     0.710217     0.219528  Biso 1.000000     H
    H   1.0     0.206924     0.736882     0.740979  Biso 1.000000     H
    H   1.0     0.440668     0.893284     0.697486  Biso 1.000000     H
    H   1.0     0.507827     0.986557     0.771459  Biso 1.000000     H
    H   1.0     0.478294     0.017008     0.895285  Biso 1.000000     H
    H   1.0     0.373738     0.000000     0.975143  Biso 1.000000     H
    H   1.0     0.273570     0.914683     0.953882  Biso 1.000000     H
    H   1.0     0.913446     0.015898     0.739143  Biso 1.000000     H
    H   1.0     0.054801     0.062211     0.508200  Biso 1.000000     H
    H   1.0     0.151595     0.000000     0.442512  Biso 1.000000     H
    H   1.0     0.201090     0.885180     0.471221  Biso 1.000000     H
    H   1.0     0.168390     0.803343     0.573469  Biso 1.000000     H
    H   1.0     0.076023     0.822045     0.671409  Biso 1.000000     H
    H   1.0     0.971359     0.529550     0.779512  Biso 1.000000     H
    H   1.0     0.887518     0.546236     0.034709  Biso 1.000000     H
    H   1.0     0.832415     0.457139     0.120913  Biso 1.000000     H
    H   1.0     0.794815     0.328763     0.098055  Biso 1.000000     H
    H   1.0     0.802015     0.255817    -0.016243  Biso 1.000000     H
    H   1.0     0.852069     0.292187     0.878221  Biso 1.000000     H
    H   1.0     0.156128     0.490175     0.533311  Biso 1.000000     H
    H   1.0     0.371943     0.421143     0.361097  Biso 1.000000     H
    H   1.0     0.395732     0.317811     0.274938  Biso 1.000000     H
    H   1.0     0.319000     0.208450     0.249013  Biso 1.000000     H
    H   1.0     0.197246     0.176702     0.299682  Biso 1.000000     H
    H   1.0     0.121575     0.245414     0.390308  Biso 1.000000     H
    C   1.0     0.561407     0.008668     0.032739  Biso 1.000000     C
    C   1.0     0.615332     0.961123     0.045623  Biso 1.000000     C
    C   1.0     0.687489     0.953937     0.008097  Biso 1.000000     C
    C   1.0     0.726606     0.887054     0.033016  Biso 1.000000     C
    C   1.0     0.678310     0.849263     0.088705  Biso 1.000000     C
    C   1.0     0.607598     0.897273     0.097591  Biso 1.000000     C
    C   1.0     0.695887     0.780589     0.127252  Biso 1.000000     C
    C   1.0     0.652708     0.741236     0.182850  Biso 1.000000     C
    C   1.0     0.581040     0.760744     0.215551  Biso 1.000000     C
    C   1.0     0.533841     0.824689     0.200283  Biso 1.000000     C
    C   1.0     0.545493     0.884735     0.147866  Biso 1.000000     C
    C   1.0     0.804324     0.864831     0.005854  Biso 1.000000     C
    C   1.0     0.532011     0.250662     0.870542  Biso 1.000000     C
    C   1.0     0.549605     0.266313     0.789163  Biso 1.000000     C
    C   1.0     0.622933     0.251946     0.756502  Biso 1.000000     C
    C   1.0     0.624672     0.275827     0.679062  Biso 1.000000     C
    C   1.0     0.549728     0.306118     0.660130  Biso 1.000000     C
    C   1.0     0.501219     0.299074     0.730511  Biso 1.000000     C
    C   1.0     0.527917     0.336455     0.588751  Biso 1.000000     C
    C   1.0     0.455995     0.365644     0.565554  Biso 1.000000     C
    C   1.0     0.386847     0.370937     0.607503  Biso 1.000000     C
    C   1.0     0.372269     0.349833     0.683955  Biso 1.000000     C
    C   1.0     0.422947     0.318692     0.738552  Biso 1.000000     C
    C   1.0     0.695407     0.270906     0.632209  Biso 1.000000     C
    C   1.0     0.683074     0.217040     0.127018  Biso 1.000000     C
    C   1.0     0.747530     0.200872     0.179801  Biso 1.000000     C
    C   1.0     0.754237     0.236797     0.252836  Biso 1.000000     C
    C   1.0     0.819845     0.208967     0.292062  Biso 1.000000     C
    C   1.0     0.857385     0.152939     0.242935  Biso 1.000000     C
    C   1.0     0.810711     0.147309     0.171278  Biso 1.000000     C
    C   1.0     0.924745     0.111515     0.260531  Biso 1.000000     C
    C   1.0     0.964273     0.056217     0.216002  Biso 1.000000     C
    C   1.0     0.946363     0.026833     0.142533  Biso 1.000000     C
    C   1.0     0.883600     0.045174     0.094920  Biso 1.000000     C
    C   1.0     0.823701     0.098370     0.107757  Biso 1.000000     C
    C   1.0     0.841159     0.235234     0.370144  Biso 1.000000     C
    C   1.0     0.469197     0.131960     0.247198  Biso 1.000000     C
    C   1.0     0.484784     0.078508     0.310530  Biso 1.000000     C
    C   1.0     0.448668     0.005637     0.316329  Biso 1.000000     C
    C   1.0     0.478100     0.982992     0.380645  Biso 1.000000     C
    C   1.0     0.534110     0.013483     0.418008  Biso 1.000000     C
    C   1.0     0.539351     0.085679     0.372749  Biso 1.000000     C
    C   1.0     0.577744     0.000000     0.483744  Biso 1.000000     C
    C   1.0     0.633890     0.037162     0.522420  Biso 1.000000     C
    C   1.0     0.663546     0.110448     0.505189  Biso 1.000000     C
    C   1.0     0.643587     0.159584     0.444611  Biso 1.000000     C
    C   1.0     0.588669     0.148632     0.386150  Biso 1.000000     C
    C   1.0     0.451975     0.904852     0.401049  Biso 1.000000     C
    C   1.0     0.437368     0.399431     0.097488  Biso 1.000000     C
    C   1.0     0.420321     0.481110     0.114990  Biso 1.000000     C
    C   1.0     0.435042     0.515531     0.187533  Biso 1.000000     C
    C   1.0     0.409732     0.593056     0.188765  Biso 1.000000     C
    C   1.0     0.414644     0.641999     0.258379  Biso 1.000000     C
    C   1.0     0.386266     0.538941     0.066495  Biso 1.000000     C
    C   1.0     0.365674     0.529288     0.000000  Biso 1.000000     C
    C   1.0     0.333984     0.583145     0.953252  Biso 1.000000     C
    C   1.0     0.312611     0.660219     0.967011  Biso 1.000000     C
    C   1.0     0.317734     0.703686     0.000000  Biso 1.000000     C
    C   1.0     0.347587     0.681662     0.091823  Biso 1.000000     C
    C   1.0     0.378556     0.610377     0.114139  Biso 1.000000     C
    C   1.0     0.574095     0.659950     0.520887  Biso 1.000000     C
    C   1.0     0.651828     0.637676     0.547579  Biso 1.000000     C
    C   1.0     0.689056     0.569303     0.522841  Biso 1.000000     C
    C   1.0     0.762049     0.562251     0.558539  Biso 1.000000     C
    C   1.0     0.772416     0.627833     0.609086  Biso 1.000000     C
    C   1.0     0.702037     0.676491     0.601584  Biso 1.000000     C
    C   1.0     0.836151     0.641088     0.657398  Biso 1.000000     C
    C   1.0     0.850231     0.702635     0.708624  Biso 1.000000     C
    C   1.0     0.804161     0.767539     0.724664  Biso 1.000000     C
    C   1.0     0.731591     0.786699     0.694144  Biso 1.000000     C
    C   1.0     0.686320     0.746335     0.640159  Biso 1.000000     C
    C   1.0     0.812948     0.495196     0.545500  Biso 1.000000     C
    C   1.0     0.053209     0.000000     0.982547  Biso 1.000000     C
    C   1.0     0.105459     0.056131     0.969600  Biso 1.000000     C
    C   1.0     0.177587     0.063330     0.000000  Biso 1.000000     C
    C   1.0     0.216792     0.130125     0.982185  Biso 1.000000     C
    C   1.0     0.168597     0.167841     0.926363  Biso 1.000000     C
    C   1.0     0.097860     0.119869     0.917484  Biso 1.000000     C
    C   1.0     0.186249     0.236451     0.887734  Biso 1.000000     C
    C   1.0     0.143170     0.275708     0.831995  Biso 1.000000     C
    C   1.0     0.071580     0.256129     0.799164  Biso 1.000000     C
    C   1.0     0.024351     0.192214     0.814466  Biso 1.000000     C
    C   1.0     0.035861     0.132298     0.867058  Biso 1.000000     C
    C   1.0     0.294502     0.152365     0.000000  Biso 1.000000     C
    C   1.0     0.000000     0.766928     0.144784  Biso 1.000000     C
    C   1.0     0.042065     0.751338     0.226187  Biso 1.000000     C
    C   1.0     0.115379     0.765702     0.258868  Biso 1.000000     C
    C   1.0     0.117061     0.741872     0.336325  Biso 1.000000     C
    C   1.0     0.042084     0.711627     0.355239  Biso 1.000000     C
    C   1.0     0.000000     0.718636     0.284819  Biso 1.000000     C
    C   1.0     0.020191     0.681332     0.426607  Biso 1.000000     C
    C   1.0     0.964951     0.652160     0.449737  Biso 1.000000     C
    C   1.0     0.895845     0.646830     0.407723  Biso 1.000000     C
    C   1.0     0.881345     0.667892     0.331242  Biso 1.000000     C
    C   1.0     0.932080     0.699013     0.276693  Biso 1.000000     C
    C   1.0     0.187770     0.746715     0.383202  Biso 1.000000     C
    C   1.0     0.176469     0.799817     0.889793  Biso 1.000000     C
    C   1.0     0.240355     0.816365     0.836435  Biso 1.000000     C
    C   1.0     0.246805     0.780363     0.763389  Biso 1.000000     C
    C   1.0     0.311984     0.808515     0.723676  Biso 1.000000     C
    C   1.0     0.349515     0.864839     0.772491  Biso 1.000000     C
    C   1.0     0.303303     0.870314     0.844443  Biso 1.000000     C
    C   1.0     0.416458     0.906700     0.754330  Biso 1.000000     C
    C   1.0     0.456053     0.962222     0.798514  Biso 1.000000     C
    C   1.0     0.438690     0.991377     0.872201  Biso 1.000000     C
    C   1.0     0.376450     0.972638     0.920327  Biso 1.000000     C
    C   1.0     0.316631     0.919243     0.907905  Biso 1.000000     C
    C   1.0     0.333115     0.782244     0.645512  Biso 1.000000     C
    C   1.0     0.978522     0.885033     0.768469  Biso 1.000000     C
    C   1.0     0.994234     0.938633     0.705180  Biso 1.000000     C
    C   1.0     0.958068     0.000000     0.699407  Biso 1.000000     C
    C   1.0     0.985752     0.034287     0.635142  Biso 1.000000     C
    C   1.0     0.026802     0.000000     0.597738  Biso 1.000000     C
    C   1.0     0.032081     0.931591     0.642970  Biso 1.000000     C
    C   1.0     0.068592     0.005464     0.531943  Biso 1.000000     C
    C   1.0     0.126443     0.980113     0.493203  Biso 1.000000     C
    C   1.0     0.156176     0.906869     0.510457  Biso 1.000000     C
    C   1.0     0.136319     0.857752     0.571085  Biso 1.000000     C
    C   1.0     0.081420     0.868667     0.629553  Biso 1.000000     C
    C   1.0     0.959647     0.112475     0.614713  Biso 1.000000     C
    C   1.0     0.948224     0.616949     0.917882  Biso 1.000000     C
    C   1.0     0.930002     0.535489     0.900589  Biso 1.000000     C
    C   1.0     0.944311     0.500730     0.828094  Biso 1.000000     C
    C   1.0     0.917538     0.423706     0.826859  Biso 1.000000     C
    C   1.0     0.921580     0.374502     0.757356  Biso 1.000000     C
    C   1.0     0.894717     0.478396     0.949021  Biso 1.000000     C
    C   1.0     0.875031     0.488623     0.011232  Biso 1.000000     C
    C   1.0     0.842090     0.435496     0.062119  Biso 1.000000     C
    C   1.0     0.819618     0.358701     0.048482  Biso 1.000000     C
    C   1.0     0.824529     0.314909    -0.019746  Biso 1.000000     C
    C   1.0     0.853840     0.336285     0.923872  Biso 1.000000     C
    C   1.0     0.885881     0.407048     0.901452  Biso 1.000000     C
    C   1.0     0.065379     0.357626     0.494753  Biso 1.000000     C
    C   1.0     0.143112     0.379913     0.468070  Biso 1.000000     C
    C   1.0     0.180386     0.448306     0.492732  Biso 1.000000     C
    C   1.0     0.253396     0.455278     0.457032  Biso 1.000000     C
    C   1.0     0.263696     0.389617     0.406560  Biso 1.000000     C
    C   1.0     0.193281     0.341022     0.414106  Biso 1.000000     C
    C   1.0     0.327415     0.376196     0.358285  Biso 1.000000     C
    C   1.0     0.341388     0.314552     0.307142  Biso 1.000000     C
    C   1.0     0.295212     0.249716     0.291129  Biso 1.000000     C
    C   1.0     0.222605     0.230687     0.321637  Biso 1.000000     C
    C   1.0     0.177429     0.271168     0.375599  Biso 1.000000     C
    C   1.0     0.304418     0.522292     0.470041  Biso 1.000000     C
    O   1.0     0.491916     0.200169     0.054911  Biso 1.000000     O
    O   1.0     0.499082     0.013624     0.073882  Biso 1.000000     O
    O   1.0     0.579365     0.057619     0.995678  Biso 1.000000     O
    O   1.0     0.840502     0.915883     0.981485  Biso 1.000000     O
    O   1.0     0.830746     0.797475     0.022958  Biso 1.000000     O
    O   1.0     0.587315     0.220511     0.910247  Biso 1.000000     O
    O   1.0     0.464451     0.268060     0.896964  Biso 1.000000     O
    O   1.0     0.751113     0.230398     0.660047  Biso 1.000000     O
    O   1.0     0.698068     0.306231     0.566920  Biso 1.000000     O
    O   1.0     0.679684     0.179884     0.061923  Biso 1.000000     O
    O   1.0     0.633795     0.268500     0.148796  Biso 1.000000     O
    O   1.0     0.904884     0.210756     0.399808  Biso 1.000000     O
    O   1.0     0.793054     0.281712     0.403725  Biso 1.000000     O
    O   1.0     0.507720     0.195940     0.243651  Biso 1.000000     O
    O   1.0     0.416922     0.111911     0.197714  Biso 1.000000     O
    O   1.0     0.474954     0.875377     0.464965  Biso 1.000000     O
    O   1.0     0.406945     0.871050     0.351797  Biso 1.000000     O
    O   1.0     0.467998     0.359937     0.152557  Biso 1.000000     O
    O   1.0     0.420612     0.372289     0.030063  Biso 1.000000     O
    O   1.0     0.458050     0.617336     0.313213  Biso 1.000000     O
    O   1.0     0.376248     0.706189     0.261004  Biso 1.000000     O
    O   1.0     0.380793     0.712858     0.451107  Biso 1.000000     O
    O   1.0     0.546551     0.726063     0.542162  Biso 1.000000     O
    O   1.0     0.538887     0.610440     0.477314  Biso 1.000000     O
    O   1.0     0.878100     0.492149     0.582053  Biso 1.000000     O
    O   1.0     0.789179     0.443395     0.497373  Biso 1.000000     O
    O   1.0     0.000000     0.816679     0.959536  Biso 1.000000     O
    O   1.0     0.000000     0.000000     0.941490  Biso 1.000000     O
    O   1.0     0.072261     0.959750     0.019664  Biso 1.000000     O
    O   1.0     0.331648     0.101374     0.033949  Biso 1.000000     O
    O   1.0     0.321015     0.219617     0.992128  Biso 1.000000     O
    O   1.0     0.079881     0.797030     0.105124  Biso 1.000000     O
    O   1.0     0.973703     0.749542     0.118322  Biso 1.000000     O
    O   1.0     0.243692     0.786873     0.355223  Biso 1.000000     O
    O   1.0     0.190205     0.711721     0.448669  Biso 1.000000     O
    O   1.0     0.172615     0.837842     0.954326  Biso 1.000000     O
    O   1.0     0.127976     0.747029     0.869182  Biso 1.000000     O
    O   1.0     0.396771     0.806753     0.615724  Biso 1.000000     O
    O   1.0     0.284992     0.735740     0.611996  Biso 1.000000     O
    O   1.0     0.000000     0.821051     0.772215  Biso 1.000000     O
    O   1.0     0.925923     0.905210     0.817567  Biso 1.000000     O
    O   1.0     0.982775     0.142067     0.550907  Biso 1.000000     O
    O   1.0     0.914447     0.146261     0.663829  Biso 1.000000     O
    O   1.0     0.979720     0.655466     0.862596  Biso 1.000000     O
    O   1.0     0.931652     0.644830     0.985047  Biso 1.000000     O
    O   1.0     0.966100     0.397619     0.702707  Biso 1.000000     O
    O   1.0     0.881250     0.311523     0.754576  Biso 1.000000     O
    O   1.0     0.888710     0.304528     0.564485  Biso 1.000000     O
    O   1.0     0.037781     0.291534     0.473470  Biso 1.000000     O
    O   1.0     0.030191     0.407152     0.538325  Biso 1.000000     O
    O   1.0     0.369627     0.525248     0.433604  Biso 1.000000     O
    O   1.0     0.280627     0.574183     0.518082  Biso 1.000000     O
   Zn   1.0     0.433356     0.107318     0.084271  Biso 1.000000    Zn
   Zn   1.0     0.585694     0.172401     0.000000  Biso 1.000000    Zn
   Zn   1.0     0.426100     0.264812     0.000000  Biso 1.000000    Zn
   Zn   1.0     0.519009     0.258595     0.149061  Biso 1.000000    Zn
   Zn   1.0     0.437806     0.616973     0.426209  Biso 1.000000    Zn
   Zn   1.0     0.356749     0.769148     0.355539  Biso 1.000000    Zn
   Zn   1.0     0.793403     0.329249     0.507451  Biso 1.000000    Zn
   Zn   1.0     0.447501     0.777328     0.517226  Biso 1.000000    Zn
   Zn   1.0     0.942182     0.909551     0.930973  Biso 1.000000    Zn
   Zn   1.0     0.078663     0.845033     0.003460  Biso 1.000000    Zn
   Zn   1.0     0.935970     0.752661     0.010252  Biso 1.000000    Zn
   Zn   1.0     0.013390     0.756979     0.866336  Biso 1.000000    Zn
   Zn   1.0     0.945907     0.400323     0.589492  Biso 1.000000    Zn
   Zn   1.0     0.864264     0.248159     0.659886  Biso 1.000000    Zn
   Zn   1.0     0.285419     0.688288     0.508120  Biso 1.000000    Zn
   Zn   1.0     0.955456     0.240109     0.498397  Biso 1.000000    Zn
