#======================================================================

# CRYSTAL DATA

#----------------------------------------------------------------------

data_VESTA_phase_1


_pd_phase_name                         MOF
_cell_length_a                         14.47600
_cell_length_b                         19.66000
_cell_length_c                         13.08100
_cell_angle_alpha                      100.69400
_cell_angle_beta                       84.70700
_cell_angle_gamma                      98.71800
_symmetry_space_group_name_H-M         "P 1"
_symmetry_Int_Tables_number            1

loop_
_symmetry_equiv_pos_as_xyz
   "x, y, z"

loop_
   _atom_site_label
   _atom_site_occupancy
   _atom_site_fract_x
   _atom_site_fract_y
   _atom_site_fract_z
   _atom_site_adp_type
   _atom_site_B_iso_or_equiv
   _atom_site_type_symbol
    H   1.0     0.458920     0.170386     0.007388  Biso 1.000000     H
    H   1.0     0.458920     0.670402     0.007386  Biso 1.000000     H
    H   1.0     0.958942     0.170390     0.007387  Biso 1.000000     H
    H   1.0     0.958945     0.670406     0.007386  Biso 1.000000     H
    H   1.0     0.454263     0.247673     0.184093  Biso 1.000000     H
    H   1.0     0.454263     0.747692     0.184089  Biso 1.000000     H
    H   1.0     0.954287     0.247678     0.184093  Biso 1.000000     H
    H   1.0     0.954288     0.747696     0.184089  Biso 1.000000     H
    H   1.0     0.308664     0.069052     0.307717  Biso 1.000000     H
    H   1.0     0.308666     0.569072     0.307717  Biso 1.000000     H
    H   1.0     0.808683     0.069058     0.307715  Biso 1.000000     H
    H   1.0     0.808687     0.569078     0.307718  Biso 1.000000     H
    H   1.0     0.266798     0.460619     0.276559  Biso 1.000000     H
    H   1.0     0.266801     0.960638     0.276560  Biso 1.000000     H
    H   1.0     0.766822     0.460625     0.276562  Biso 1.000000     H
    H   1.0     0.766821     0.960644     0.276560  Biso 1.000000     H
    H   1.0     0.288165     0.276010     0.050777  Biso 1.000000     H
    H   1.0     0.288168     0.776028     0.050778  Biso 1.000000     H
    H   1.0     0.788181     0.276017     0.050778  Biso 1.000000     H
    H   1.0     0.788181     0.776034     0.050778  Biso 1.000000     H
    H   1.0     0.349712     0.350368     0.916543  Biso 1.000000     H
    H   1.0     0.349712     0.850388     0.916542  Biso 1.000000     H
    H   1.0     0.849729     0.350374     0.916545  Biso 1.000000     H
    H   1.0     0.849727     0.850393     0.916542  Biso 1.000000     H
    H   1.0     0.041106     0.329600     0.992623  Biso 1.000000     H
    H   1.0     0.041107     0.829617     0.992621  Biso 1.000000     H
    H   1.0     0.541131     0.329605     0.992622  Biso 1.000000     H
    H   1.0     0.541131     0.829622     0.992620  Biso 1.000000     H
    H   1.0     0.045763     0.252309     0.815920  Biso 1.000000     H
    H   1.0     0.045763     0.752327     0.815916  Biso 1.000000     H
    H   1.0     0.545786     0.252314     0.815920  Biso 1.000000     H
    H   1.0     0.545788     0.752332     0.815916  Biso 1.000000     H
    H   1.0     0.191369     0.430924     0.692288  Biso 1.000000     H
    H   1.0     0.191372     0.930943     0.692290  Biso 1.000000     H
    H   1.0     0.691389     0.430930     0.692287  Biso 1.000000     H
    H   1.0     0.691391     0.930950     0.692288  Biso 1.000000     H
    H   1.0     0.233224     0.039363     0.723441  Biso 1.000000     H
    H   1.0     0.233224     0.539382     0.723440  Biso 1.000000     H
    H   1.0     0.733244     0.039369     0.723441  Biso 1.000000     H
    H   1.0     0.733247     0.539387     0.723442  Biso 1.000000     H
    H   1.0     0.211874     0.223971     0.949229  Biso 1.000000     H
    H   1.0     0.211875     0.723989     0.949230  Biso 1.000000     H
    H   1.0     0.711887     0.223977     0.949229  Biso 1.000000     H
    H   1.0     0.711890     0.723994     0.949231  Biso 1.000000     H
    H   1.0     0.150331     0.149612     0.083465  Biso 1.000000     H
    H   1.0     0.150331     0.649631     0.083464  Biso 1.000000     H
    H   1.0     0.650347     0.149616     0.083465  Biso 1.000000     H
    H   1.0     0.650346     0.649635     0.083464  Biso 1.000000     H
    C   1.0     0.428092     0.150385     0.076839  Biso 1.000000     C
    C   1.0     0.428095     0.650402     0.076838  Biso 1.000000     C
    C   1.0     0.928121     0.150389     0.076839  Biso 1.000000     C
    C   1.0     0.928116     0.650408     0.076838  Biso 1.000000     C
    C   1.0     0.424354     0.192512     0.174299  Biso 1.000000     C
    C   1.0     0.424353     0.692531     0.174297  Biso 1.000000     C
    C   1.0     0.924376     0.192518     0.174298  Biso 1.000000     C
    C   1.0     0.924380     0.692535     0.174299  Biso 1.000000     C
    C   1.0     0.380907     0.162809     0.258708  Biso 1.000000     C
    C   1.0     0.380910     0.662827     0.258707  Biso 1.000000     C
    C   1.0     0.880929     0.162815     0.258707  Biso 1.000000     C
    C   1.0     0.880929     0.662833     0.258706  Biso 1.000000     C
    C   1.0     0.343578     0.092278     0.242694  Biso 1.000000     C
    C   1.0     0.343579     0.592295     0.242691  Biso 1.000000     C
    C   1.0     0.843598     0.092285     0.242692  Biso 1.000000     C
    C   1.0     0.843603     0.592301     0.242692  Biso 1.000000     C
    C   1.0     0.354085     0.051494     0.144303  Biso 1.000000     C
    C   1.0     0.354088     0.551510     0.144302  Biso 1.000000     C
    C   1.0     0.854114     0.051499     0.144304  Biso 1.000000     C
    C   1.0     0.854108     0.551515     0.144301  Biso 1.000000     C
    C   1.0     0.327069     0.475479     0.122468  Biso 1.000000     C
    C   1.0     0.327069     0.975495     0.122466  Biso 1.000000     C
    C   1.0     0.827087     0.475485     0.122470  Biso 1.000000     C
    C   1.0     0.827097     0.975499     0.122469  Biso 1.000000     C
    C   1.0     0.286096     0.436146     0.197438  Biso 1.000000     C
    C   1.0     0.286099     0.936164     0.197440  Biso 1.000000     C
    C   1.0     0.786118     0.436152     0.197440  Biso 1.000000     C
    C   1.0     0.786119     0.936170     0.197440  Biso 1.000000     C
    C   1.0     0.269347     0.363553     0.171446  Biso 1.000000     C
    C   1.0     0.269346     0.863572     0.171446  Biso 1.000000     C
    C   1.0     0.769364     0.363559     0.171447  Biso 1.000000     C
    C   1.0     0.769367     0.863577     0.171448  Biso 1.000000     C
    C   1.0     0.296305     0.332532     0.070626  Biso 1.000000     C
    C   1.0     0.296306     0.832550     0.070628  Biso 1.000000     C
    C   1.0     0.796323     0.332538     0.070628  Biso 1.000000     C
    C   1.0     0.796321     0.832556     0.070627  Biso 1.000000     C
    C   1.0     0.332792     0.373496    -0.002970  Biso 1.000000     C
    C   1.0     0.332790     0.873513    -0.002970  Biso 1.000000     C
    C   1.0     0.832806     0.373502    -0.002970  Biso 1.000000     C
    C   1.0     0.832812     0.873518    -0.002969  Biso 1.000000     C
    C   1.0     0.376851     0.204647     0.367052  Biso 1.000000     C
    C   1.0     0.376852     0.704666     0.367050  Biso 1.000000     C
    C   1.0     0.876870     0.204652     0.367051  Biso 1.000000     C
    C   1.0     0.876872     0.704672     0.367050  Biso 1.000000     C
    C   1.0     0.221895     0.318583     0.248695  Biso 1.000000     C
    C   1.0     0.221895     0.818602     0.248695  Biso 1.000000     C
    C   1.0     0.721912     0.318587     0.248695  Biso 1.000000     C
    C   1.0     0.721914     0.818607     0.248696  Biso 1.000000     C
    C   1.0     0.459530     0.086427     0.842023  Biso 1.000000     C
    C   1.0     0.459527     0.586440     0.842022  Biso 1.000000     C
    C   1.0     0.959539     0.086432     0.842019  Biso 1.000000     C
    C   1.0     0.959559     0.586442     0.842023  Biso 1.000000     C
    C   1.0     0.406894     0.441003     0.793997  Biso 1.000000     C
    C   1.0     0.406899     0.941019     0.793994  Biso 1.000000     C
    C   1.0     0.906925     0.441006     0.793999  Biso 1.000000     C
    C   1.0     0.906909     0.941026     0.793991  Biso 1.000000     C
    C   1.0     0.071934     0.349599     0.923170  Biso 1.000000     C
    C   1.0     0.071930     0.849617     0.923169  Biso 1.000000     C
    C   1.0     0.571959     0.349603     0.923169  Biso 1.000000     C
    C   1.0     0.571960     0.849621     0.923168  Biso 1.000000     C
    C   1.0     0.075671     0.307470     0.825711  Biso 1.000000     C
    C   1.0     0.075674     0.807487     0.825711  Biso 1.000000     C
    C   1.0     0.575695     0.307475     0.825710  Biso 1.000000     C
    C   1.0     0.575696     0.807493     0.825709  Biso 1.000000     C
    C   1.0     0.119122     0.337172     0.741303  Biso 1.000000     C
    C   1.0     0.119123     0.837189     0.741302  Biso 1.000000     C
    C   1.0     0.619143     0.337178     0.741302  Biso 1.000000     C
    C   1.0     0.619144     0.837196     0.741301  Biso 1.000000     C
    C   1.0     0.156450     0.407704     0.757315  Biso 1.000000     C
    C   1.0     0.156454     0.907720     0.757314  Biso 1.000000     C
    C   1.0     0.656472     0.407709     0.757314  Biso 1.000000     C
    C   1.0     0.656475     0.907726     0.757313  Biso 1.000000     C
    C   1.0     0.145944     0.448490     0.855703  Biso 1.000000     C
    C   1.0     0.145938     0.948507     0.855701  Biso 1.000000     C
    C   1.0     0.645965     0.448495     0.855704  Biso 1.000000     C
    C   1.0     0.645964     0.948512     0.855701  Biso 1.000000     C
    C   1.0     0.172955     0.024507     0.877535  Biso 1.000000     C
    C   1.0     0.172964     0.524521     0.877534  Biso 1.000000     C
    C   1.0     0.672982     0.024510     0.877537  Biso 1.000000     C
    C   1.0     0.672988     0.524525     0.877536  Biso 1.000000     C
    C   1.0     0.213930     0.063837     0.802563  Biso 1.000000     C
    C   1.0     0.213932     0.563854     0.802563  Biso 1.000000     C
    C   1.0     0.713947     0.063841     0.802562  Biso 1.000000     C
    C   1.0     0.713951     0.563859     0.802564  Biso 1.000000     C
    C   1.0     0.230685     0.136429     0.828559  Biso 1.000000     C
    C   1.0     0.230684     0.636448     0.828558  Biso 1.000000     C
    C   1.0     0.730705     0.136434     0.828561  Biso 1.000000     C
    C   1.0     0.730706     0.636453     0.828561  Biso 1.000000     C
    C   1.0     0.203730     0.167450     0.929379  Biso 1.000000     C
    C   1.0     0.203730     0.667467     0.929379  Biso 1.000000     C
    C   1.0     0.703745     0.167455     0.929378  Biso 1.000000     C
    C   1.0     0.703744     0.667472     0.929379  Biso 1.000000     C
    C   1.0     0.167243     0.126487     0.000000  Biso 1.000000     C
    C   1.0     0.167248     0.626504     0.000000  Biso 1.000000     C
    C   1.0     0.667267     0.126492     0.000000  Biso 1.000000     C
    C   1.0     0.667267     0.626508     0.000000  Biso 1.000000     C
    C   1.0     0.123186     0.295330     0.632962  Biso 1.000000     C
    C   1.0     0.123188     0.795350     0.632961  Biso 1.000000     C
    C   1.0     0.623206     0.295334     0.632962  Biso 1.000000     C
    C   1.0     0.623208     0.795354     0.632960  Biso 1.000000     C
    C   1.0     0.278128     0.181405     0.751314  Biso 1.000000     C
    C   1.0     0.278130     0.681423     0.751314  Biso 1.000000     C
    C   1.0     0.778148     0.181409     0.751315  Biso 1.000000     C
    C   1.0     0.778151     0.681428     0.751316  Biso 1.000000     C
    C   1.0     0.040497     0.413566     0.157987  Biso 1.000000     C
    C   1.0     0.040510     0.913577     0.157989  Biso 1.000000     C
    C   1.0     0.540512     0.413570     0.157984  Biso 1.000000     C
    C   1.0     0.540518     0.913581     0.157984  Biso 1.000000     C
    C   1.0     0.093152     0.058981     0.206014  Biso 1.000000     C
    C   1.0     0.093139     0.559000     0.206008  Biso 1.000000     C
    C   1.0     0.593158     0.058987     0.206012  Biso 1.000000     C
    C   1.0     0.593154     0.559004     0.206008  Biso 1.000000     C
    N   1.0     0.395354     0.081303     0.061885  Biso 1.000000     N
    N   1.0     0.395354     0.581320     0.061884  Biso 1.000000     N
    N   1.0     0.895370     0.081309     0.061882  Biso 1.000000     N
    N   1.0     0.895383     0.581324     0.061885  Biso 1.000000     N
    N   1.0     0.347717     0.443921     0.022058  Biso 1.000000     N
    N   1.0     0.347721     0.943937     0.022056  Biso 1.000000     N
    N   1.0     0.847742     0.443926     0.022061  Biso 1.000000     N
    N   1.0     0.847733     0.943943     0.022054  Biso 1.000000     N
    N   1.0     0.491759     0.135843     0.805574  Biso 1.000000     N
    N   1.0     0.491757     0.635859     0.805581  Biso 1.000000     N
    N   1.0     0.991785     0.135845     0.805572  Biso 1.000000     N
    N   1.0     0.991778     0.635861     0.805578  Biso 1.000000     N
    N   1.0     0.404294     0.395839     0.721006  Biso 1.000000     N
    N   1.0     0.404295     0.895858     0.721000  Biso 1.000000     N
    N   1.0     0.904315     0.395843     0.721008  Biso 1.000000     N
    N   1.0     0.904321     0.895861     0.721003  Biso 1.000000     N
    N   1.0     0.104671     0.418682     0.938121  Biso 1.000000     N
    N   1.0     0.104681     0.918697     0.938124  Biso 1.000000     N
    N   1.0     0.604688     0.418687     0.938120  Biso 1.000000     N
    N   1.0     0.604694     0.918703     0.938120  Biso 1.000000     N
    N   1.0     0.152322     0.056062     0.977951  Biso 1.000000     N
    N   1.0     0.152316     0.556079     0.977945  Biso 1.000000     N
    N   1.0     0.652330     0.056068     0.977948  Biso 1.000000     N
    N   1.0     0.652329     0.556084     0.977944  Biso 1.000000     N
    N   1.0     0.008269     0.364150     0.194435  Biso 1.000000     N
    N   1.0     0.008264     0.864166     0.194441  Biso 1.000000     N
    N   1.0     0.508296     0.364150     0.194431  Biso 1.000000     N
    N   1.0     0.508291     0.864167     0.194438  Biso 1.000000     N
    N   1.0     0.095741     0.104145     0.279004  Biso 1.000000     N
    N   1.0     0.095748     0.604163     0.278999  Biso 1.000000     N
    N   1.0     0.595770     0.104147     0.279007  Biso 1.000000     N
    N   1.0     0.595775     0.604166     0.279000  Biso 1.000000     N
    O   1.0     0.297796     0.205795     0.417813  Biso 1.000000     O
    O   1.0     0.297798     0.705815     0.417812  Biso 1.000000     O
    O   1.0     0.797816     0.205798     0.417814  Biso 1.000000     O
    O   1.0     0.797818     0.705817     0.417812  Biso 1.000000     O
    O   1.0     0.453359     0.235243     0.404381  Biso 1.000000     O
    O   1.0     0.453360     0.735264     0.404378  Biso 1.000000     O
    O   1.0     0.953378     0.235251     0.404379  Biso 1.000000     O
    O   1.0     0.953379     0.735274     0.404378  Biso 1.000000     O
    O   1.0     0.207094     0.347402     0.342653  Biso 1.000000     O
    O   1.0     0.207097     0.847421     0.342654  Biso 1.000000     O
    O   1.0     0.707113     0.347405     0.342655  Biso 1.000000     O
    O   1.0     0.707115     0.847425     0.342656  Biso 1.000000     O
    O   1.0     0.199319     0.253651     0.213631  Biso 1.000000     O
    O   1.0     0.199321     0.753670     0.213632  Biso 1.000000     O
    O   1.0     0.699338     0.253656     0.213630  Biso 1.000000     O
    O   1.0     0.699341     0.753675     0.213632  Biso 1.000000     O
    O   1.0     0.202241     0.294204     0.582199  Biso 1.000000     O
    O   1.0     0.202243     0.794224     0.582197  Biso 1.000000     O
    O   1.0     0.702261     0.294206     0.582198  Biso 1.000000     O
    O   1.0     0.702263     0.794226     0.582197  Biso 1.000000     O
    O   1.0     0.046685     0.264708     0.595641  Biso 1.000000     O
    O   1.0     0.046686     0.764731     0.595638  Biso 1.000000     O
    O   1.0     0.546703     0.264716     0.595641  Biso 1.000000     O
    O   1.0     0.546705     0.764739     0.595638  Biso 1.000000     O
    O   1.0     0.292919     0.152591     0.657351  Biso 1.000000     O
    O   1.0     0.292920     0.652611     0.657350  Biso 1.000000     O
    O   1.0     0.792935     0.152596     0.657352  Biso 1.000000     O
    O   1.0     0.792938     0.652615     0.657352  Biso 1.000000     O
    O   1.0     0.300701     0.246335     0.786383  Biso 1.000000     O
    O   1.0     0.300706     0.746353     0.786384  Biso 1.000000     O
    O   1.0     0.800723     0.246339     0.786384  Biso 1.000000     O
    O   1.0     0.800722     0.746359     0.786384  Biso 1.000000     O
   Sr   1.0     0.132059     0.230631     0.395162  Biso 1.000000    Sr
   Sr   1.0     0.132060     0.730651     0.395162  Biso 1.000000    Sr
   Sr   1.0     0.632077     0.230635     0.395164  Biso 1.000000    Sr
   Sr   1.0     0.632079     0.730654     0.395161  Biso 1.000000    Sr
   Sr   1.0     0.367981     0.269352     0.604849  Biso 1.000000    Sr
   Sr   1.0     0.367984     0.769372     0.604848  Biso 1.000000    Sr
   Sr   1.0     0.867999     0.269356     0.604849  Biso 1.000000    Sr
   Sr   1.0     0.868001     0.769376     0.604848  Biso 1.000000    Sr
   Pt   1.0     0.405460     0.512178     0.920738  Biso 1.000000    Pt
   Pt   1.0     0.405456     0.000000     0.920735  Biso 1.000000    Pt
   Pt   1.0     0.905472     0.512184     0.920736  Biso 1.000000    Pt
   Pt   1.0     0.905492     0.000000     0.920737  Biso 1.000000    Pt
   Pt   1.0     0.094566    -0.012191     0.079269  Biso 1.000000    Pt
   Pt   1.0     0.094580     0.487823     0.079269  Biso 1.000000    Pt
   Pt   1.0     0.594602    -0.012189     0.079272  Biso 1.000000    Pt
   Pt   1.0     0.594609     0.487826     0.079272  Biso 1.000000    Pt
