#======================================================================

# CRYSTAL DATA

#----------------------------------------------------------------------

data_VESTA_phase_1


_pd_phase_name                         MOF
_cell_length_a                         15.39100
_cell_length_b                         14.66700
_cell_length_c                         15.81300
_cell_angle_alpha                      90.02000
_cell_angle_beta                       90.05000
_cell_angle_gamma                      92.04500
_symmetry_space_group_name_H-M         "P 1"
_symmetry_Int_Tables_number            1

loop_
_symmetry_equiv_pos_as_xyz
   "x, y, z"

loop_
   _atom_site_label
   _atom_site_occupancy
   _atom_site_fract_x
   _atom_site_fract_y
   _atom_site_fract_z
   _atom_site_adp_type
   _atom_site_B_iso_or_equiv
   _atom_site_type_symbol
    H   1.0     0.447834     0.612735     0.807412  Biso 1.000000     H
    H   1.0     0.947832     0.612737     0.807413  Biso 1.000000     H
    H   1.0     0.438305     0.782857     0.825355  Biso 1.000000     H
    H   1.0     0.938305     0.782857     0.825358  Biso 1.000000     H
    H   1.0     0.319020     0.731782     0.067431  Biso 1.000000     H
    H   1.0     0.819020     0.731782     0.067433  Biso 1.000000     H
    H   1.0     0.284197     0.636150     0.156736  Biso 1.000000     H
    H   1.0     0.784194     0.636150     0.156736  Biso 1.000000     H
    H   1.0     0.291679     0.354704     0.225459  Biso 1.000000     H
    H   1.0     0.791677     0.354704     0.225459  Biso 1.000000     H
    H   1.0     0.362719     0.324234     0.084595  Biso 1.000000     H
    H   1.0     0.862719     0.324233     0.084596  Biso 1.000000     H
    H   1.0     0.302053     0.887170     0.307133  Biso 1.000000     H
    H   1.0     0.802051     0.887170     0.307134  Biso 1.000000     H
    H   1.0     0.311864     0.717131     0.325166  Biso 1.000000     H
    H   1.0     0.811861     0.717131     0.325166  Biso 1.000000     H
    H   1.0     0.431921     0.768758     0.567027  Biso 1.000000     H
    H   1.0     0.931918     0.768757     0.567027  Biso 1.000000     H
    H   1.0     0.466197     0.864395     0.656495  Biso 1.000000     H
    H   1.0     0.966195     0.864394     0.656496  Biso 1.000000     H
    H   1.0     0.458709     0.145929     0.725115  Biso 1.000000     H
    H   1.0     0.958709     0.145928     0.725115  Biso 1.000000     H
    H   1.0     0.387225     0.176123     0.584338  Biso 1.000000     H
    H   1.0     0.887225     0.176123     0.584340  Biso 1.000000     H
    H   1.0     0.052160     0.387265     0.192568  Biso 1.000000     H
    H   1.0     0.552159     0.387266     0.192568  Biso 1.000000     H
    H   1.0     0.061690     0.217145     0.174625  Biso 1.000000     H
    H   1.0     0.561689     0.217146     0.174625  Biso 1.000000     H
    H   1.0     0.180977     0.268219     0.932550  Biso 1.000000     H
    H   1.0     0.680975     0.268219     0.932550  Biso 1.000000     H
    H   1.0     0.215802     0.363851     0.843246  Biso 1.000000     H
    H   1.0     0.715798     0.363851     0.843245  Biso 1.000000     H
    H   1.0     0.208317     0.645294     0.774522  Biso 1.000000     H
    H   1.0     0.708316     0.645296     0.774521  Biso 1.000000     H
    H   1.0     0.137281     0.675768     0.915387  Biso 1.000000     H
    H   1.0     0.637281     0.675768     0.915387  Biso 1.000000     H
    H   1.0     0.197939     0.112830     0.692851  Biso 1.000000     H
    H   1.0     0.697938     0.112830     0.692851  Biso 1.000000     H
    H   1.0     0.188133     0.282869     0.674818  Biso 1.000000     H
    H   1.0     0.688132     0.282870     0.674818  Biso 1.000000     H
    H   1.0     0.068075     0.231244     0.432957  Biso 1.000000     H
    H   1.0     0.568073     0.231244     0.432957  Biso 1.000000     H
    H   1.0     0.033798     0.135606     0.343487  Biso 1.000000     H
    H   1.0     0.533794     0.135605     0.343489  Biso 1.000000     H
    H   1.0     0.041279     0.854072     0.274870  Biso 1.000000     H
    H   1.0     0.541279     0.854072     0.274871  Biso 1.000000     H
    H   1.0     0.112761     0.823876     0.415647  Biso 1.000000     H
    H   1.0     0.612764     0.823877     0.415647  Biso 1.000000     H
    C   1.0     0.421893     0.642371     0.864796  Biso 1.000000     C
    C   1.0     0.921888     0.642373     0.864796  Biso 1.000000     C
    C   1.0     0.414215     0.736009     0.874301  Biso 1.000000     C
    C   1.0     0.914209     0.736011     0.874303  Biso 1.000000     C
    C   1.0     0.377295     0.769626     0.948451  Biso 1.000000     C
    C   1.0     0.877300     0.769623     0.948461  Biso 1.000000     C
    C   1.0     0.349318     0.707210     0.010087  Biso 1.000000     C
    C   1.0     0.849312     0.707205     0.010089  Biso 1.000000     C
    C   1.0     0.362643     0.614540    -0.000702  Biso 1.000000     C
    C   1.0     0.862639     0.614536    -0.000704  Biso 1.000000     C
    C   1.0     0.341007     0.546455     0.064302  Biso 1.000000     C
    C   1.0     0.841004     0.546454     0.064301  Biso 1.000000     C
    C   1.0     0.301811     0.567119     0.140871  Biso 1.000000     C
    C   1.0     0.801810     0.567120     0.140871  Biso 1.000000     C
    C   1.0     0.282921     0.498448     0.199560  Biso 1.000000     C
    C   1.0     0.782923     0.498449     0.199561  Biso 1.000000     C
    C   1.0     0.305767     0.409502     0.180492  Biso 1.000000     C
    C   1.0     0.805765     0.409502     0.180491  Biso 1.000000     C
    C   1.0     0.344586     0.392212     0.103299  Biso 1.000000     C
    C   1.0     0.844582     0.392211     0.103297  Biso 1.000000     C
    C   1.0     0.369919     0.870324     0.966719  Biso 1.000000     C
    C   1.0     0.869923     0.870321     0.966727  Biso 1.000000     C
    C   1.0     0.234407     0.520808     0.279695  Biso 1.000000     C
    C   1.0     0.734408     0.520807     0.279695  Biso 1.000000     C
    C   1.0     0.453430     0.432944     0.806613  Biso 1.000000     C
    C   1.0     0.953427     0.432944     0.806612  Biso 1.000000     C
    C   1.0     0.413546     0.307867     0.938679  Biso 1.000000     C
    C   1.0     0.913534     0.307866     0.938675  Biso 1.000000     C
    C   1.0     0.328203     0.857676     0.364514  Biso 1.000000     C
    C   1.0     0.828201     0.857677     0.364515  Biso 1.000000     C
    C   1.0     0.336095     0.764069     0.374050  Biso 1.000000     C
    C   1.0     0.836094     0.764070     0.374049  Biso 1.000000     C
    C   1.0     0.373324     0.730618     0.448162  Biso 1.000000     C
    C   1.0     0.873324     0.730617     0.448159  Biso 1.000000     C
    C   1.0     0.401350     0.793171     0.509728  Biso 1.000000     C
    C   1.0     0.901346     0.793169     0.509728  Biso 1.000000     C
    C   1.0     0.387724     0.885784     0.498956  Biso 1.000000     C
    C   1.0     0.887720     0.885783     0.498958  Biso 1.000000     C
    C   1.0     0.409286     0.953950     0.563987  Biso 1.000000     C
    C   1.0     0.909279     0.953948     0.563989  Biso 1.000000     C
    C   1.0     0.448574     0.933403     0.640581  Biso 1.000000     C
    C   1.0     0.948577     0.933404     0.640580  Biso 1.000000     C
    C   1.0     0.467455     0.000000     0.699307  Biso 1.000000     C
    C   1.0     0.967467     0.000000     0.699303  Biso 1.000000     C
    C   1.0     0.444580     0.091045     0.680189  Biso 1.000000     C
    C   1.0     0.944578     0.091044     0.680190  Biso 1.000000     C
    C   1.0     0.405529     0.108197     0.603014  Biso 1.000000     C
    C   1.0     0.905527     0.108196     0.603016  Biso 1.000000     C
    C   1.0     0.380792     0.629954     0.466555  Biso 1.000000     C
    C   1.0     0.880799     0.629954     0.466553  Biso 1.000000     C
    C   1.0     0.015887     0.979605     0.779513  Biso 1.000000     C
    C   1.0     0.515887     0.979604     0.779518  Biso 1.000000     C
    C   1.0     0.296197     0.067221     0.306351  Biso 1.000000     C
    C   1.0     0.796204     0.067222     0.306348  Biso 1.000000     C
    C   1.0     0.335768     0.192246     0.438575  Biso 1.000000     C
    C   1.0     0.835774     0.192247     0.438573  Biso 1.000000     C
    C   1.0     0.078109     0.357629     0.135187  Biso 1.000000     C
    C   1.0     0.578106     0.357631     0.135186  Biso 1.000000     C
    C   1.0     0.085783     0.263991     0.125680  Biso 1.000000     C
    C   1.0     0.585780     0.263992     0.125678  Biso 1.000000     C
    C   1.0     0.122693     0.230379     0.051522  Biso 1.000000     C
    C   1.0     0.622694     0.230378     0.051524  Biso 1.000000     C
    C   1.0     0.150681     0.292794     0.989892  Biso 1.000000     C
    C   1.0     0.650678     0.292794     0.989893  Biso 1.000000     C
    C   1.0     0.137356     0.385464     0.000000  Biso 1.000000     C
    C   1.0     0.637354     0.385464     0.000000  Biso 1.000000     C
    C   1.0     0.158987     0.453546     0.935678  Biso 1.000000     C
    C   1.0     0.658989     0.453547     0.935679  Biso 1.000000     C
    C   1.0     0.198185     0.432881     0.859110  Biso 1.000000     C
    C   1.0     0.698184     0.432882     0.859110  Biso 1.000000     C
    C   1.0     0.217085     0.501553     0.800425  Biso 1.000000     C
    C   1.0     0.717074     0.501552     0.800420  Biso 1.000000     C
    C   1.0     0.194228     0.590497     0.819489  Biso 1.000000     C
    C   1.0     0.694228     0.590498     0.819488  Biso 1.000000     C
    C   1.0     0.155413     0.607789     0.896684  Biso 1.000000     C
    C   1.0     0.655413     0.607790     0.896683  Biso 1.000000     C
    C   1.0     0.130070     0.129680     0.033257  Biso 1.000000     C
    C   1.0     0.630070     0.129680     0.033259  Biso 1.000000     C
    C   1.0     0.265600     0.479193     0.720292  Biso 1.000000     C
    C   1.0     0.765595     0.479192     0.720289  Biso 1.000000     C
    C   1.0     0.046577     0.567059     0.193371  Biso 1.000000     C
    C   1.0     0.546571     0.567057     0.193370  Biso 1.000000     C
    C   1.0     0.086466     0.692136     0.061308  Biso 1.000000     C
    C   1.0     0.586458     0.692135     0.061306  Biso 1.000000     C
    C   1.0     0.171790     0.142323     0.635469  Biso 1.000000     C
    C   1.0     0.671790     0.142324     0.635469  Biso 1.000000     C
    C   1.0     0.163903     0.235931     0.625934  Biso 1.000000     C
    C   1.0     0.663901     0.235931     0.625935  Biso 1.000000     C
    C   1.0     0.126670     0.269383     0.551825  Biso 1.000000     C
    C   1.0     0.626674     0.269383     0.551822  Biso 1.000000     C
    C   1.0     0.098645     0.206832     0.490256  Biso 1.000000     C
    C   1.0     0.598644     0.206831     0.490256  Biso 1.000000     C
    C   1.0     0.112272     0.114218     0.501027  Biso 1.000000     C
    C   1.0     0.612267     0.114217     0.501029  Biso 1.000000     C
    C   1.0     0.090705     0.046052     0.435997  Biso 1.000000     C
    C   1.0     0.590704     0.046051     0.435999  Biso 1.000000     C
    C   1.0     0.051416     0.066596     0.359403  Biso 1.000000     C
    C   1.0     0.551415     0.066596     0.359404  Biso 1.000000     C
    C   1.0     0.032536    -0.002130     0.300676  Biso 1.000000     C
    C   1.0     0.532539    -0.002128     0.300676  Biso 1.000000     C
    C   1.0     0.055411     0.908955     0.319795  Biso 1.000000     C
    C   1.0     0.555410     0.908955     0.319797  Biso 1.000000     C
    C   1.0     0.094460     0.891803     0.396971  Biso 1.000000     C
    C   1.0     0.594458     0.891803     0.396972  Biso 1.000000     C
    C   1.0     0.119206     0.370048     0.533432  Biso 1.000000     C
    C   1.0     0.619209     0.370047     0.533430  Biso 1.000000     C
    C   1.0     0.484110     0.020397     0.220464  Biso 1.000000     C
    C   1.0     0.984113     0.020396     0.220468  Biso 1.000000     C
    C   1.0     0.203800     0.932779     0.693632  Biso 1.000000     C
    C   1.0     0.703794     0.932778     0.693633  Biso 1.000000     C
    C   1.0     0.164229     0.807755     0.561407  Biso 1.000000     C
    C   1.0     0.664226     0.807754     0.561407  Biso 1.000000     C
    N   1.0     0.398497     0.582342     0.926362  Biso 1.000000     N
    N   1.0     0.898504     0.582342     0.926365  Biso 1.000000     N
    N   1.0     0.361055     0.458653     0.045516  Biso 1.000000     N
    N   1.0     0.861051     0.458652     0.045515  Biso 1.000000     N
    N   1.0     0.473348     0.431750     0.734817  Biso 1.000000     N
    N   1.0     0.973347     0.431752     0.734817  Biso 1.000000     N
    N   1.0     0.408191     0.230612     0.958651  Biso 1.000000     N
    N   1.0     0.908196     0.230612     0.958654  Biso 1.000000     N
    N   1.0     0.351621     0.917832     0.426052  Biso 1.000000     N
    N   1.0     0.851623     0.917832     0.426052  Biso 1.000000     N
    N   1.0     0.388989     0.041687     0.545244  Biso 1.000000     N
    N   1.0     0.888990     0.041687     0.545244  Biso 1.000000     N
    N   1.0     0.276357     0.068606     0.234506  Biso 1.000000     N
    N   1.0     0.776350     0.068603     0.234507  Biso 1.000000     N
    N   1.0     0.340903     0.269498     0.458638  Biso 1.000000     N
    N   1.0     0.840897     0.269498     0.458639  Biso 1.000000     N
    N   1.0     0.101499     0.417659     0.073618  Biso 1.000000     N
    N   1.0     0.601498     0.417659     0.073619  Biso 1.000000     N
    N   1.0     0.138949     0.541349     0.954469  Biso 1.000000     N
    N   1.0     0.638945     0.541349     0.954467  Biso 1.000000     N
    N   1.0     0.026646     0.568249     0.265164  Biso 1.000000     N
    N   1.0     0.526647     0.568251     0.265165  Biso 1.000000     N
    N   1.0     0.091799     0.769390     0.041328  Biso 1.000000     N
    N   1.0     0.591801     0.769389     0.041329  Biso 1.000000     N
    N   1.0     0.148371     0.082167     0.573932  Biso 1.000000     N
    N   1.0     0.648369     0.082168     0.573932  Biso 1.000000     N
    N   1.0     0.111001     0.958314     0.454740  Biso 1.000000     N
    N   1.0     0.611003     0.958314     0.454741  Biso 1.000000     N
    N   1.0     0.223636     0.931394     0.765478  Biso 1.000000     N
    N   1.0     0.723637     0.931395     0.765476  Biso 1.000000     N
    N   1.0     0.159091     0.730502     0.541346  Biso 1.000000     N
    N   1.0     0.659092     0.730502     0.541343  Biso 1.000000     N
    O   1.0     0.439403     0.919043     0.966943  Biso 1.000000     O
    O   1.0     0.939400     0.919053     0.966931  Biso 1.000000     O
    O   1.0     0.295138     0.898800    -0.014660  Biso 1.000000     O
    O   1.0     0.795137     0.898799    -0.014674  Biso 1.000000     O
    O   1.0     0.226153     0.604977     0.296110  Biso 1.000000     O
    O   1.0     0.726153     0.604977     0.296110  Biso 1.000000     O
    O   1.0     0.203643     0.454187     0.322470  Biso 1.000000     O
    O   1.0     0.703641     0.454187     0.322470  Biso 1.000000     O
    O   1.0     0.311239     0.581322     0.466830  Biso 1.000000     O
    O   1.0     0.811244     0.581324     0.466832  Biso 1.000000     O
    O   1.0     0.455569     0.601448     0.485242  Biso 1.000000     O
    O   1.0     0.955575     0.601448     0.485244  Biso 1.000000     O
    O   1.0     0.023072     0.895357     0.796162  Biso 1.000000     O
    O   1.0     0.523078     0.895355     0.796163  Biso 1.000000     O
    O   1.0     0.047632     0.046005     0.822062  Biso 1.000000     O
    O   1.0     0.547643     0.046003     0.822060  Biso 1.000000     O
    O   1.0     0.060590     0.080955     0.033053  Biso 1.000000     O
    O   1.0     0.560588     0.080957     0.033048  Biso 1.000000     O
    O   1.0     0.204853     0.101197     0.000000  Biso 1.000000     O
    O   1.0     0.704853     0.101199     0.000000  Biso 1.000000     O
    O   1.0     0.273847     0.395023     0.703874  Biso 1.000000     O
    O   1.0     0.773854     0.395023     0.703876  Biso 1.000000     O
    O   1.0     0.296355     0.545815     0.677511  Biso 1.000000     O
    O   1.0     0.796361     0.545814     0.677516  Biso 1.000000     O
    O   1.0     0.188762     0.418676     0.533151  Biso 1.000000     O
    O   1.0     0.688765     0.418676     0.533154  Biso 1.000000     O
    O   1.0     0.044431     0.398556     0.514740  Biso 1.000000     O
    O   1.0     0.544436     0.398558     0.514741  Biso 1.000000     O
    O   1.0     0.476912     0.104645     0.203823  Biso 1.000000     O
    O   1.0     0.976914     0.104643     0.203824  Biso 1.000000     O
    O   1.0     0.452355     0.953995     0.177923  Biso 1.000000     O
    O   1.0     0.952361     0.953994     0.177926  Biso 1.000000     O
   Ba   1.0     0.377154     0.067453     0.061063  Biso 1.000000    Ba
   Ba   1.0     0.877158     0.067453     0.061063  Biso 1.000000    Ba
   Ba   1.0     0.372491     0.432673     0.560919  Biso 1.000000    Ba
   Ba   1.0     0.872498     0.432673     0.560919  Biso 1.000000    Ba
   Ba   1.0     0.122835     0.932549     0.938922  Biso 1.000000    Ba
   Ba   1.0     0.622840     0.932548     0.938922  Biso 1.000000    Ba
   Ba   1.0     0.127503     0.567326     0.439064  Biso 1.000000    Ba
   Ba   1.0     0.627507     0.567326     0.439063  Biso 1.000000    Ba
   Pt   1.0     0.411412     0.440323     0.924116  Biso 1.000000    Pt
   Pt   1.0     0.911414     0.440323     0.924117  Biso 1.000000    Pt
   Pt   1.0     0.338313     0.059828     0.423882  Biso 1.000000    Pt
   Pt   1.0     0.838311     0.059828     0.423883  Biso 1.000000    Pt
   Pt   1.0     0.088583     0.559679     0.075865  Biso 1.000000    Pt
   Pt   1.0     0.588582     0.559679     0.075866  Biso 1.000000    Pt
   Pt   1.0     0.161678     0.940172     0.576102  Biso 1.000000    Pt
   Pt   1.0     0.661678     0.940172     0.576102  Biso 1.000000    Pt
