#======================================================================

# CRYSTAL DATA

#----------------------------------------------------------------------

data_VESTA_phase_1


_pd_phase_name                         MOF
_cell_length_a                         17.31700
_cell_length_b                         17.66500
_cell_length_c                         17.11100
_cell_angle_alpha                      90.02600
_cell_angle_beta                       90.02700
_cell_angle_gamma                      89.99100
_symmetry_space_group_name_H-M         "P 1"
_symmetry_Int_Tables_number            1

loop_
_symmetry_equiv_pos_as_xyz
   "x, y, z"

loop_
   _atom_site_label
   _atom_site_occupancy
   _atom_site_fract_x
   _atom_site_fract_y
   _atom_site_fract_z
   _atom_site_adp_type
   _atom_site_B_iso_or_equiv
   _atom_site_type_symbol
    H   1.0     0.341411     0.127299     0.525013  Biso 1.000000     H
    H   1.0     0.342546     0.626901     0.524675  Biso 1.000000     H
    H   1.0     0.841407     0.127119     0.524880  Biso 1.000000     H
    H   1.0     0.840231     0.627977     0.527101  Biso 1.000000     H
    H   1.0     0.289368     0.187222     0.460721  Biso 1.000000     H
    H   1.0     0.290355     0.686618     0.460246  Biso 1.000000     H
    H   1.0     0.789390     0.187134     0.460643  Biso 1.000000     H
    H   1.0     0.788249     0.687620     0.462384  Biso 1.000000     H
    H   1.0     0.267967     0.233633     0.612763  Biso 1.000000     H
    H   1.0     0.268322     0.732782     0.612281  Biso 1.000000     H
    H   1.0     0.767999     0.233353     0.612785  Biso 1.000000     H
    H   1.0     0.767529     0.735383     0.614094  Biso 1.000000     H
    H   1.0     0.319931     0.319667     0.620291  Biso 1.000000     H
    H   1.0     0.320069     0.818851     0.620369  Biso 1.000000     H
    H   1.0     0.819961     0.319374     0.620420  Biso 1.000000     H
    H   1.0     0.819885     0.821261     0.620625  Biso 1.000000     H
    H   1.0     0.475618     0.200881     0.553891  Biso 1.000000     H
    H   1.0     0.476307     0.701148     0.553782  Biso 1.000000     H
    H   1.0     0.975576     0.200556     0.553859  Biso 1.000000     H
    H   1.0     0.975099     0.701694     0.554579  Biso 1.000000     H
    H   1.0     0.459893     0.290535     0.597702  Biso 1.000000     H
    H   1.0     0.460098     0.790751     0.597532  Biso 1.000000     H
    H   1.0     0.960000     0.290246     0.597653  Biso 1.000000     H
    H   1.0     0.959304     0.791363     0.598385  Biso 1.000000     H
    H   1.0     0.391543     0.249185     0.856531  Biso 1.000000     H
    H   1.0     0.391770     0.749144     0.856336  Biso 1.000000     H
    H   1.0     0.891566     0.249102     0.856490  Biso 1.000000     H
    H   1.0     0.889591     0.749678     0.857143  Biso 1.000000     H
    H   1.0     0.427242     0.304733     0.729440  Biso 1.000000     H
    H   1.0     0.427528     0.804784     0.729294  Biso 1.000000     H
    H   1.0     0.927368     0.304539     0.729370  Biso 1.000000     H
    H   1.0     0.925459     0.805567     0.730172  Biso 1.000000     H
    H   1.0     0.402435     0.082065     0.626235  Biso 1.000000     H
    H   1.0     0.403312     0.582080     0.626022  Biso 1.000000     H
    H   1.0     0.902241     0.081872     0.626253  Biso 1.000000     H
    H   1.0     0.903556     0.582646     0.626928  Biso 1.000000     H
    H   1.0     0.368504     0.034398     0.758815  Biso 1.000000     H
    H   1.0     0.369262     0.534339     0.758527  Biso 1.000000     H
    H   1.0     0.868264     0.034300     0.758886  Biso 1.000000     H
    H   1.0     0.869511     0.534644     0.759393  Biso 1.000000     H
    H   1.0     0.158615     0.372912     0.025014  Biso 1.000000     H
    H   1.0     0.158622     0.872875     0.024872  Biso 1.000000     H
    H   1.0     0.658544     0.372950     0.025061  Biso 1.000000     H
    H   1.0     0.657783     0.872943     0.025535  Biso 1.000000     H
    H   1.0     0.210620     0.312943     0.960722  Biso 1.000000     H
    H   1.0     0.210617     0.813113     0.960375  Biso 1.000000     H
    H   1.0     0.710591     0.312973     0.960805  Biso 1.000000     H
    H   1.0     0.710269     0.813369     0.961335  Biso 1.000000     H
    H   1.0     0.231964     0.266625     0.112843  Biso 1.000000     H
    H   1.0     0.232662     0.766592     0.112139  Biso 1.000000     H
    H   1.0     0.731921     0.266703     0.112940  Biso 1.000000     H
    H   1.0     0.731674     0.766665     0.113004  Biso 1.000000     H
    H   1.0     0.179979     0.180614     0.120283  Biso 1.000000     H
    H   1.0     0.180841     0.680466     0.119714  Biso 1.000000     H
    H   1.0     0.679982     0.180663     0.120367  Biso 1.000000     H
    H   1.0     0.679821     0.680587     0.120478  Biso 1.000000     H
    H   1.0     0.024382     0.299410     0.053650  Biso 1.000000     H
    H   1.0     0.024626     0.798964     0.053732  Biso 1.000000     H
    H   1.0     0.524348     0.299437     0.053695  Biso 1.000000     H
    H   1.0     0.523887     0.798907     0.053979  Biso 1.000000     H
    H   1.0     0.040004     0.209748     0.097416  Biso 1.000000     H
    H   1.0     0.040654     0.709347     0.097440  Biso 1.000000     H
    H   1.0     0.539953     0.209776     0.097461  Biso 1.000000     H
    H   1.0     0.539916     0.709335     0.097794  Biso 1.000000     H
    H   1.0     0.108651     0.251005     0.356308  Biso 1.000000     H
    H   1.0     0.109440     0.750771     0.356217  Biso 1.000000     H
    H   1.0     0.608298     0.251006     0.356414  Biso 1.000000     H
    H   1.0     0.608684     0.751098     0.356590  Biso 1.000000     H
    H   1.0     0.072837     0.195485     0.229138  Biso 1.000000     H
    H   1.0     0.073725     0.695157     0.229038  Biso 1.000000     H
    H   1.0     0.572536     0.195521     0.229206  Biso 1.000000     H
    H   1.0     0.572925     0.695335     0.229562  Biso 1.000000     H
    H   1.0     0.097420     0.418197     0.126213  Biso 1.000000     H
    H   1.0     0.097385     0.917980     0.126178  Biso 1.000000     H
    H   1.0     0.597453     0.418214     0.126321  Biso 1.000000     H
    H   1.0     0.596591     0.918017     0.126349  Biso 1.000000     H
    H   1.0     0.131497     0.465832     0.258864  Biso 1.000000     H
    H   1.0     0.131453     0.965694     0.258813  Biso 1.000000     H
    H   1.0     0.631423     0.465815     0.259017  Biso 1.000000     H
    H   1.0     0.630657     0.965911     0.258873  Biso 1.000000     H
    H   1.0     0.091370     0.122941     0.524847  Biso 1.000000     H
    H   1.0     0.091870     0.623091     0.525190  Biso 1.000000     H
    H   1.0     0.591503     0.123637     0.524882  Biso 1.000000     H
    H   1.0     0.592110     0.622924     0.525454  Biso 1.000000     H
    H   1.0     0.039298     0.063232     0.460329  Biso 1.000000     H
    H   1.0     0.039547     0.563328     0.460973  Biso 1.000000     H
    H   1.0     0.539340     0.063698     0.460625  Biso 1.000000     H
    H   1.0     0.539704     0.563253     0.461198  Biso 1.000000     H
    H   1.0     0.017216     0.016746     0.611980  Biso 1.000000     H
    H   1.0     0.018318     0.516814     0.612825  Biso 1.000000     H
    H   1.0     0.517821     0.017452     0.612639  Biso 1.000000     H
    H   1.0     0.518472     0.516665     0.613019  Biso 1.000000     H
    H   1.0     0.070327     0.430816     0.620377  Biso 1.000000     H
    H   1.0     0.069047     0.930623     0.619752  Biso 1.000000     H
    H   1.0     0.570329     0.430562     0.620425  Biso 1.000000     H
    H   1.0     0.569871     0.931496     0.620403  Biso 1.000000     H
    H   1.0     0.225283     0.048948     0.553857  Biso 1.000000     H
    H   1.0     0.225911     0.549460     0.553761  Biso 1.000000     H
    H   1.0     0.725467     0.050094     0.553754  Biso 1.000000     H
    H   1.0     0.726126     0.549010     0.553952  Biso 1.000000     H
    H   1.0     0.210328     0.459765     0.597434  Biso 1.000000     H
    H   1.0     0.209250     0.959315     0.597512  Biso 1.000000     H
    H   1.0     0.710278     0.459393     0.597687  Biso 1.000000     H
    H   1.0     0.709960     0.960316     0.597287  Biso 1.000000     H
    H   1.0     0.140976     0.000730     0.856337  Biso 1.000000     H
    H   1.0     0.141376     0.500802     0.856271  Biso 1.000000     H
    H   1.0     0.641526     0.000838     0.856281  Biso 1.000000     H
    H   1.0     0.641572     0.500823     0.856518  Biso 1.000000     H
    H   1.0     0.177578     0.445429     0.729169  Biso 1.000000     H
    H   1.0     0.176426     0.945126     0.729124  Biso 1.000000     H
    H   1.0     0.677492     0.445239     0.729443  Biso 1.000000     H
    H   1.0     0.677260     0.945675     0.728929  Biso 1.000000     H
    H   1.0     0.152452     0.167961     0.626297  Biso 1.000000     H
    H   1.0     0.152845     0.668196     0.626365  Biso 1.000000     H
    H   1.0     0.652439     0.168665     0.626658  Biso 1.000000     H
    H   1.0     0.653336     0.667956     0.626447  Biso 1.000000     H
    H   1.0     0.118652     0.215662     0.758974  Biso 1.000000     H
    H   1.0     0.118390     0.715673     0.758936  Biso 1.000000     H
    H   1.0     0.618493     0.215930     0.759470  Biso 1.000000     H
    H   1.0     0.619131     0.715679     0.759016  Biso 1.000000     H
    H   1.0     0.408398     0.377097     0.025201  Biso 1.000000     H
    H   1.0     0.408543     0.877185     0.025050  Biso 1.000000     H
    H   1.0     0.908382     0.377033     0.025188  Biso 1.000000     H
    H   1.0     0.908646     0.877617     0.025741  Biso 1.000000     H
    H   1.0     0.460598     0.436821     0.960894  Biso 1.000000     H
    H   1.0     0.460586     0.937093     0.960800  Biso 1.000000     H
    H   1.0     0.960542     0.436914     0.960992  Biso 1.000000     H
    H   1.0     0.960004     0.937350     0.960688  Biso 1.000000     H
    H   1.0     0.482157     0.483393     0.112792  Biso 1.000000     H
    H   1.0     0.481829     0.983594     0.112960  Biso 1.000000     H
    H   1.0     0.981979     0.483381     0.112975  Biso 1.000000     H
    H   1.0     0.981784     0.983884     0.113098  Biso 1.000000     H
    H   1.0     0.429818     0.069627     0.120298  Biso 1.000000     H
    H   1.0     0.430321     0.569488     0.120287  Biso 1.000000     H
    H   1.0     0.929971     0.070044     0.120385  Biso 1.000000     H
    H   1.0     0.930009     0.569413     0.120491  Biso 1.000000     H
    H   1.0     0.274378     0.451083     0.053914  Biso 1.000000     H
    H   1.0     0.274306     0.950735     0.053667  Biso 1.000000     H
    H   1.0     0.774364     0.450571     0.054047  Biso 1.000000     H
    H   1.0     0.773974     0.951663     0.053963  Biso 1.000000     H
    H   1.0     0.289877     0.040457     0.097394  Biso 1.000000     H
    H   1.0     0.290320     0.540772     0.097553  Biso 1.000000     H
    H   1.0     0.790131     0.041217     0.097885  Biso 1.000000     H
    H   1.0     0.789959     0.540319     0.097711  Biso 1.000000     H
    H   1.0     0.359608     0.499667     0.356407  Biso 1.000000     H
    H   1.0     0.358184     0.999482     0.356397  Biso 1.000000     H
    H   1.0     0.858829     0.499452     0.356653  Biso 1.000000     H
    H   1.0     0.858787     0.999203     0.356607  Biso 1.000000     H
    H   1.0     0.322445     0.054848     0.229180  Biso 1.000000     H
    H   1.0     0.323673     0.555160     0.229277  Biso 1.000000     H
    H   1.0     0.823132     0.055114     0.229624  Biso 1.000000     H
    H   1.0     0.822950     0.554814     0.229413  Biso 1.000000     H
    H   1.0     0.346909     0.332165     0.126490  Biso 1.000000     H
    H   1.0     0.347505     0.832076     0.126300  Biso 1.000000     H
    H   1.0     0.847350     0.331908     0.126673  Biso 1.000000     H
    H   1.0     0.846442     0.832433     0.126090  Biso 1.000000     H
    H   1.0     0.380949     0.284557     0.259109  Biso 1.000000     H
    H   1.0     0.381483     0.784599     0.259012  Biso 1.000000     H
    H   1.0     0.881385     0.284452     0.259360  Biso 1.000000     H
    H   1.0     0.880344     0.784382     0.258621  Biso 1.000000     H
    C   1.0     0.346015     0.178552     0.488778  Biso 1.000000     C
    C   1.0     0.346964     0.678181     0.488458  Biso 1.000000     C
    C   1.0     0.846023     0.178417     0.488715  Biso 1.000000     C
    C   1.0     0.844914     0.678890     0.490373  Biso 1.000000     C
    C   1.0     0.404910     0.163702     0.422652  Biso 1.000000     C
    C   1.0     0.406245     0.663791     0.422537  Biso 1.000000     C
    C   1.0     0.904951     0.163641     0.422609  Biso 1.000000     C
    C   1.0     0.903584     0.663389     0.424225  Biso 1.000000     C
    C   1.0     0.298540     0.277059     0.578565  Biso 1.000000     C
    C   1.0     0.298836     0.776441     0.578349  Biso 1.000000     C
    C   1.0     0.798562     0.276823     0.578638  Biso 1.000000     C
    C   1.0     0.798208     0.778355     0.579380  Biso 1.000000     C
    C   1.0     0.240087     0.318699     0.527638  Biso 1.000000     C
    C   1.0     0.240291     0.818323     0.527728  Biso 1.000000     C
    C   1.0     0.740081     0.318529     0.527799  Biso 1.000000     C
    C   1.0     0.739819     0.819761     0.528177  Biso 1.000000     C
    C   1.0     0.433915     0.234729     0.587348  Biso 1.000000     C
    C   1.0     0.434406     0.734819     0.587176  Biso 1.000000     C
    C   1.0     0.933939     0.234473     0.587325  Biso 1.000000     C
    C   1.0     0.933410     0.735504     0.588100  Biso 1.000000     C
    C   1.0     0.395183     0.213395     0.804711  Biso 1.000000     C
    C   1.0     0.395546     0.713375     0.804507  Biso 1.000000     C
    C   1.0     0.895177     0.213283     0.804687  Biso 1.000000     C
    C   1.0     0.893922     0.713948     0.805323  Biso 1.000000     C
    C   1.0     0.414333     0.244403     0.732576  Biso 1.000000     C
    C   1.0     0.414735     0.744429     0.732402  Biso 1.000000     C
    C   1.0     0.914381     0.244227     0.732541  Biso 1.000000     C
    C   1.0     0.913124     0.745121     0.733280  Biso 1.000000     C
    C   1.0     0.416750     0.198836     0.665701  Biso 1.000000     C
    C   1.0     0.417323     0.698875     0.665523  Biso 1.000000     C
    C   1.0     0.916749     0.198625     0.665690  Biso 1.000000     C
    C   1.0     0.916362     0.699544     0.666441  Biso 1.000000     C
    C   1.0     0.400535     0.121459     0.675244  Biso 1.000000     C
    C   1.0     0.401264     0.621464     0.675032  Biso 1.000000     C
    C   1.0     0.900414     0.121276     0.675260  Biso 1.000000     C
    C   1.0     0.900976     0.622005     0.675936  Biso 1.000000     C
    C   1.0     0.381833     0.094014     0.749003  Biso 1.000000     C
    C   1.0     0.382506     0.593979     0.748756  Biso 1.000000     C
    C   1.0     0.881677     0.093891     0.749030  Biso 1.000000     C
    C   1.0     0.882230     0.594393     0.749616  Biso 1.000000     C
    C   1.0     0.153986     0.321646     0.988750  Biso 1.000000     C
    C   1.0     0.154027     0.821646     0.988549  Biso 1.000000     C
    C   1.0     0.653947     0.321671     0.988814  Biso 1.000000     C
    C   1.0     0.653485     0.821725     0.989162  Biso 1.000000     C
    C   1.0     0.095045     0.336469     0.922616  Biso 1.000000     C
    C   1.0     0.094927     0.836441     0.922567  Biso 1.000000     C
    C   1.0     0.595030     0.336460     0.922646  Biso 1.000000     C
    C   1.0     0.594841     0.836492     0.922780  Biso 1.000000     C
    C   1.0     0.201411     0.223175     0.078590  Biso 1.000000     C
    C   1.0     0.202013     0.723133     0.077994  Biso 1.000000     C
    C   1.0     0.701396     0.223240     0.078679  Biso 1.000000     C
    C   1.0     0.701159     0.723179     0.078770  Biso 1.000000     C
    C   1.0     0.259906     0.181465     0.027789  Biso 1.000000     C
    C   1.0     0.260231     0.681567     0.026697  Biso 1.000000     C
    C   1.0     0.759925     0.181567     0.027873  Biso 1.000000     C
    C   1.0     0.759702     0.681523     0.027981  Biso 1.000000     C
    C   1.0     0.066030     0.265532     0.087149  Biso 1.000000     C
    C   1.0     0.066473     0.765214     0.087121  Biso 1.000000     C
    C   1.0     0.565984     0.265561     0.087212  Biso 1.000000     C
    C   1.0     0.565706     0.765213     0.087460  Biso 1.000000     C
    C   1.0     0.104931     0.286809     0.304530  Biso 1.000000     C
    C   1.0     0.105532     0.786578     0.304449  Biso 1.000000     C
    C   1.0     0.604650     0.286812     0.304634  Biso 1.000000     C
    C   1.0     0.604787     0.786851     0.304791  Biso 1.000000     C
    C   1.0     0.085711     0.255821     0.232361  Biso 1.000000     C
    C   1.0     0.086383     0.755537     0.232288  Biso 1.000000     C
    C   1.0     0.585474     0.255843     0.232444  Biso 1.000000     C
    C   1.0     0.585590     0.755718     0.232678  Biso 1.000000     C
    C   1.0     0.083204     0.301415     0.165548  Biso 1.000000     C
    C   1.0     0.083663     0.801140     0.165488  Biso 1.000000     C
    C   1.0     0.583098     0.301438     0.165628  Biso 1.000000     C
    C   1.0     0.582829     0.801225     0.165814  Biso 1.000000     C
    C   1.0     0.099387     0.378795     0.175180  Biso 1.000000     C
    C   1.0     0.099566     0.878572     0.175132  Biso 1.000000     C
    C   1.0     0.599334     0.378806     0.175286  Biso 1.000000     C
    C   1.0     0.598745     0.878673     0.175353  Biso 1.000000     C
    C   1.0     0.118161     0.406218     0.248972  Biso 1.000000     C
    C   1.0     0.118313     0.906040     0.248917  Biso 1.000000     C
    C   1.0     0.618054     0.406212     0.249098  Biso 1.000000     C
    C   1.0     0.617516     0.906241     0.249083  Biso 1.000000     C
    C   1.0     0.095909     0.071704     0.488529  Biso 1.000000     C
    C   1.0     0.096296     0.571842     0.488878  Biso 1.000000     C
    C   1.0     0.595995     0.072308     0.488690  Biso 1.000000     C
    C   1.0     0.596462     0.571697     0.489099  Biso 1.000000     C
    C   1.0     0.154973     0.086462     0.422560  Biso 1.000000     C
    C   1.0     0.155096     0.586592     0.422674  Biso 1.000000     C
    C   1.0     0.654952     0.086943     0.422585  Biso 1.000000     C
    C   1.0     0.655102     0.586490     0.422759  Biso 1.000000     C
    C   1.0     0.048869     0.473336     0.578628  Biso 1.000000     C
    C   1.0     0.047889     0.973234     0.577935  Biso 1.000000     C
    C   1.0     0.548943     0.473186     0.578749  Biso 1.000000     C
    C   1.0     0.548448     0.973934     0.578550  Biso 1.000000     C
    C   1.0    -0.009663     0.431559     0.527892  Biso 1.000000     C
    C   1.0    -0.010314     0.931596     0.526640  Biso 1.000000     C
    C   1.0     0.490335     0.431590     0.527935  Biso 1.000000     C
    C   1.0     0.490024     0.932024     0.527805  Biso 1.000000     C
    C   1.0     0.183433     0.015205     0.587198  Biso 1.000000     C
    C   1.0     0.184285     0.515563     0.587215  Biso 1.000000     C
    C   1.0     0.683881     0.016114     0.587166  Biso 1.000000     C
    C   1.0     0.684392     0.515250     0.587414  Biso 1.000000     C
    C   1.0     0.144711     0.036537     0.804567  Biso 1.000000     C
    C   1.0     0.145141     0.536646     0.804532  Biso 1.000000     C
    C   1.0     0.645191     0.036784     0.804607  Biso 1.000000     C
    C   1.0     0.645403     0.536620     0.804749  Biso 1.000000     C
    C   1.0     0.163713     0.005503     0.732374  Biso 1.000000     C
    C   1.0     0.164574     0.505741     0.732399  Biso 1.000000     C
    C   1.0     0.664363     0.006006     0.732345  Biso 1.000000     C
    C   1.0     0.664675     0.505592     0.732624  Biso 1.000000     C
    C   1.0     0.166297     0.051111     0.665579  Biso 1.000000     C
    C   1.0     0.167122     0.551385     0.665628  Biso 1.000000     C
    C   1.0     0.666787     0.051787     0.665665  Biso 1.000000     C
    C   1.0     0.667317     0.551167     0.665808  Biso 1.000000     C
    C   1.0     0.150379     0.128545     0.675246  Biso 1.000000     C
    C   1.0     0.150817     0.628743     0.675281  Biso 1.000000     C
    C   1.0     0.650555     0.129132     0.675514  Biso 1.000000     C
    C   1.0     0.651246     0.628577     0.675420  Biso 1.000000     C
    C   1.0     0.131784     0.156008     0.749052  Biso 1.000000     C
    C   1.0     0.131829     0.656082     0.749032  Biso 1.000000     C
    C   1.0     0.631849     0.156349     0.749385  Biso 1.000000     C
    C   1.0     0.632407     0.656044     0.749160  Biso 1.000000     C
    C   1.0     0.403922     0.428319     0.988894  Biso 1.000000     C
    C   1.0     0.403935     0.928427     0.988793  Biso 1.000000     C
    C   1.0     0.903870     0.428301     0.988957  Biso 1.000000     C
    C   1.0     0.903630     0.928651     0.989230  Biso 1.000000     C
    C   1.0     0.345039     0.413509     0.922688  Biso 1.000000     C
    C   1.0     0.345038     0.913557     0.922616  Biso 1.000000     C
    C   1.0     0.845021     0.413530     0.922708  Biso 1.000000     C
    C   1.0     0.843958     0.913552     0.923837  Biso 1.000000     C
    C   1.0     0.451288     0.026997     0.078651  Biso 1.000000     C
    C   1.0     0.451626     0.526854     0.078559  Biso 1.000000     C
    C   1.0     0.951301     0.027316     0.078772  Biso 1.000000     C
    C   1.0     0.951396     0.526820     0.078762  Biso 1.000000     C
    C   1.0     0.509810     0.068631     0.027874  Biso 1.000000     C
    C   1.0     0.510122     0.568455     0.027721  Biso 1.000000     C
    C   1.0     0.000000     0.068760     0.027856  Biso 1.000000     C
    C   1.0     0.000000     0.568492     0.027936  Biso 1.000000     C
    C   1.0     0.316181     0.484884     0.087317  Biso 1.000000     C
    C   1.0     0.315932     0.984653     0.087169  Biso 1.000000     C
    C   1.0     0.816014     0.484524     0.087480  Biso 1.000000     C
    C   1.0     0.815831     0.985292     0.087484  Biso 1.000000     C
    C   1.0     0.355510     0.463801     0.304669  Biso 1.000000     C
    C   1.0     0.354577     0.963623     0.304623  Biso 1.000000     C
    C   1.0     0.855061     0.463594     0.304879  Biso 1.000000     C
    C   1.0     0.854852     0.963504     0.304737  Biso 1.000000     C
    C   1.0     0.336258     0.494765     0.232519  Biso 1.000000     C
    C   1.0     0.335404     0.994523     0.232422  Biso 1.000000     C
    C   1.0     0.835824     0.494479     0.232688  Biso 1.000000     C
    C   1.0     0.835720     0.994706     0.232674  Biso 1.000000     C
    C   1.0     0.333350     0.449079     0.165742  Biso 1.000000     C
    C   1.0     0.333061     0.948871     0.165604  Biso 1.000000     C
    C   1.0     0.833251     0.448775     0.165908  Biso 1.000000     C
    C   1.0     0.832926     0.949219     0.165760  Biso 1.000000     C
    C   1.0     0.349157     0.371635     0.175423  Biso 1.000000     C
    C   1.0     0.349335     0.871516     0.175276  Biso 1.000000     C
    C   1.0     0.849372     0.371395     0.175602  Biso 1.000000     C
    C   1.0     0.848684     0.871730     0.175168  Biso 1.000000     C
    C   1.0     0.367927     0.344229     0.249203  Biso 1.000000     C
    C   1.0     0.368056     0.844183     0.249093  Biso 1.000000     C
    C   1.0     0.868128     0.344070     0.249415  Biso 1.000000     C
    C   1.0     0.867383     0.844091     0.248867  Biso 1.000000     C
    N   1.0     0.365125     0.246277     0.535822  Biso 1.000000     N
    N   1.0     0.365588     0.746014     0.535581  Biso 1.000000     N
    N   1.0     0.865133     0.246087     0.535838  Biso 1.000000     N
    N   1.0     0.864513     0.746915     0.536729  Biso 1.000000     N
    N   1.0     0.378780     0.139132     0.812814  Biso 1.000000     N
    N   1.0     0.379261     0.639082     0.812566  Biso 1.000000     N
    N   1.0     0.878686     0.139041     0.812818  Biso 1.000000     N
    N   1.0     0.878352     0.639507     0.813377  Biso 1.000000     N
    N   1.0     0.134865     0.253949     0.035747  Biso 1.000000     N
    N   1.0     0.135194     0.753852     0.035509  Biso 1.000000     N
    N   1.0     0.634837     0.253981     0.035828  Biso 1.000000     N
    N   1.0     0.634526     0.753873     0.035986  Biso 1.000000     N
    N   1.0     0.121298     0.361079     0.312721  Biso 1.000000     N
    N   1.0     0.121651     0.860899     0.312649  Biso 1.000000     N
    N   1.0     0.621102     0.361060     0.312843  Biso 1.000000     N
    N   1.0     0.620909     0.861183     0.312883  Biso 1.000000     N
    N   1.0     0.114716     0.003892     0.535506  Biso 1.000000     N
    N   1.0     0.115399     0.504063     0.535789  Biso 1.000000     N
    N   1.0     0.615004     0.004620     0.535744  Biso 1.000000     N
    N   1.0     0.615517     0.503873     0.535951  Biso 1.000000     N
    N   1.0     0.128585     0.110858     0.812788  Biso 1.000000     N
    N   1.0     0.128583     0.610879     0.812721  Biso 1.000000     N
    N   1.0     0.628786     0.111029     0.812999  Biso 1.000000     N
    N   1.0     0.629083     0.610907     0.812897  Biso 1.000000     N
    N   1.0     0.384975     0.496159     0.035814  Biso 1.000000     N
    N   1.0     0.384780     0.996169     0.035786  Biso 1.000000     N
    N   1.0     0.884797     0.496040     0.035989  Biso 1.000000     N
    N   1.0     0.884674     0.996569     0.036031  Biso 1.000000     N
    N   1.0     0.371460     0.389450     0.312911  Biso 1.000000     N
    N   1.0     0.371056     0.889383     0.312847  Biso 1.000000     N
    N   1.0     0.871342     0.389309     0.313125  Biso 1.000000     N
    N   1.0     0.870833     0.889138     0.312710  Biso 1.000000     N
    O   1.0     0.432820     0.222167     0.386868  Biso 1.000000     O
    O   1.0     0.433204     0.722538     0.386551  Biso 1.000000     O
    O   1.0     0.932846     0.222141     0.386879  Biso 1.000000     O
    O   1.0     0.930146     0.721505     0.386823  Biso 1.000000     O
    O   1.0     0.420373     0.096522     0.406871  Biso 1.000000     O
    O   1.0     0.422940     0.596807     0.407060  Biso 1.000000     O
    O   1.0     0.920458     0.096474     0.406808  Biso 1.000000     O
    O   1.0     0.920139     0.596135     0.409965  Biso 1.000000     O
    O   1.0     0.263490     0.349640     0.463424  Biso 1.000000     O
    O   1.0     0.263492     0.849342     0.463469  Biso 1.000000     O
    O   1.0     0.763438     0.349483     0.463569  Biso 1.000000     O
    O   1.0     0.763116     0.849732     0.463459  Biso 1.000000     O
    O   1.0     0.172204     0.325588     0.552200  Biso 1.000000     O
    O   1.0     0.172555     0.825341     0.552633  Biso 1.000000     O
    O   1.0     0.672245     0.325445     0.552470  Biso 1.000000     O
    O   1.0     0.672082     0.827412     0.552943  Biso 1.000000     O
    O   1.0     0.067122     0.277977     0.886809  Biso 1.000000     O
    O   1.0     0.066950     0.777951     0.886805  Biso 1.000000     O
    O   1.0     0.567119     0.277955     0.886859  Biso 1.000000     O
    O   1.0     0.567067     0.778002     0.886830  Biso 1.000000     O
    O   1.0     0.079561     0.403640     0.906866  Biso 1.000000     O
    O   1.0     0.079403     0.903614     0.906860  Biso 1.000000     O
    O   1.0     0.579563     0.403626     0.906858  Biso 1.000000     O
    O   1.0     0.579488     0.903662     0.906877  Biso 1.000000     O
    O   1.0     0.236567     0.150529     0.963490  Biso 1.000000     O
    O   1.0     0.236336     0.650189     0.962902  Biso 1.000000     O
    O   1.0     0.736586     0.150566     0.963601  Biso 1.000000     O
    O   1.0     0.736483     0.650697     0.963587  Biso 1.000000     O
    O   1.0     0.327731     0.174541     0.052541  Biso 1.000000     O
    O   1.0     0.328461     0.675072     0.050521  Biso 1.000000     O
    O   1.0     0.827766     0.174729     0.052598  Biso 1.000000     O
    O   1.0     0.827473     0.674468     0.052860  Biso 1.000000     O
    O   1.0     0.182950     0.027955     0.386839  Biso 1.000000     O
    O   1.0     0.182936     0.528095     0.386820  Biso 1.000000     O
    O   1.0     0.682788     0.028381     0.386832  Biso 1.000000     O
    O   1.0     0.682903     0.528007     0.386847  Biso 1.000000     O
    O   1.0     0.170461     0.153627     0.406827  Biso 1.000000     O
    O   1.0     0.170592     0.653755     0.406901  Biso 1.000000     O
    O   1.0     0.670574     0.154072     0.406821  Biso 1.000000     O
    O   1.0     0.670433     0.653664     0.406902  Biso 1.000000     O
    O   1.0     0.013505     0.400789     0.463471  Biso 1.000000     O
    O   1.0     0.013581     0.900056     0.462956  Biso 1.000000     O
    O   1.0     0.513500     0.400720     0.463564  Biso 1.000000     O
    O   1.0     0.513296     0.901310     0.463398  Biso 1.000000     O
    O   1.0     0.422557     0.424665     0.552768  Biso 1.000000     O
    O   1.0     0.422307     0.924714     0.552694  Biso 1.000000     O
    O   1.0     0.922633     0.424390     0.552834  Biso 1.000000     O
    O   1.0     0.921442     0.925216     0.550405  Biso 1.000000     O
    O   1.0     0.317196     0.471978     0.886818  Biso 1.000000     O
    O   1.0     0.317111     0.972021     0.886800  Biso 1.000000     O
    O   1.0     0.817172     0.472032     0.886900  Biso 1.000000     O
    O   1.0     0.817045     0.971857     0.886976  Biso 1.000000     O
    O   1.0     0.329536     0.346338     0.906918  Biso 1.000000     O
    O   1.0     0.329585     0.846377     0.906841  Biso 1.000000     O
    O   1.0     0.829568     0.346366     0.906859  Biso 1.000000     O
    O   1.0     0.826878     0.846383     0.909722  Biso 1.000000     O
    O   1.0     0.486532     0.099475     0.963533  Biso 1.000000     O
    O   1.0     0.486764     0.599303     0.963414  Biso 1.000000     O
    O   1.0     0.986550     0.099544     0.963496  Biso 1.000000     O
    O   1.0     0.986511     0.599331     0.963614  Biso 1.000000     O
    O   1.0     0.077696     0.075634     0.052573  Biso 1.000000     O
    O   1.0     0.077671     0.575478     0.052698  Biso 1.000000     O
    O   1.0     0.577615     0.075592     0.052683  Biso 1.000000     O
    O   1.0     0.577940     0.575414     0.052479  Biso 1.000000     O
   Cd   1.0     0.352762     0.086548     0.933200  Biso 1.000000    Cd
   Cd   1.0     0.353133     0.586485     0.932885  Biso 1.000000    Cd
   Cd   1.0     0.852730     0.086592     0.933211  Biso 1.000000    Cd
   Cd   1.0     0.852588     0.586524     0.933622  Biso 1.000000    Cd
   Cd   1.0     0.147212     0.413623     0.433191  Biso 1.000000    Cd
   Cd   1.0     0.147362     0.913405     0.433226  Biso 1.000000    Cd
   Cd   1.0     0.647287     0.413546     0.433278  Biso 1.000000    Cd
   Cd   1.0     0.646960     0.914040     0.433178  Biso 1.000000    Cd
   Cd   1.0     0.102777     0.163458     0.933247  Biso 1.000000    Cd
   Cd   1.0     0.102550     0.663359     0.933174  Biso 1.000000    Cd
   Cd   1.0     0.602733     0.163443     0.933435  Biso 1.000000    Cd
   Cd   1.0     0.602756     0.663558     0.933248  Biso 1.000000    Cd
   Cd   1.0     0.397312     0.336733     0.433374  Biso 1.000000    Cd
   Cd   1.0     0.397260     0.836872     0.433293  Biso 1.000000    Cd
   Cd   1.0     0.897270     0.336660     0.433541  Biso 1.000000    Cd
   Cd   1.0     0.896492     0.836461     0.433041  Biso 1.000000    Cd
