#======================================================================

# CRYSTAL DATA

#----------------------------------------------------------------------

data_VESTA_phase_1


_pd_phase_name                         MOF
_cell_length_a                         14.78800
_cell_length_b                         18.11500
_cell_length_c                         19.48600
_cell_angle_alpha                      90.00500
_cell_angle_beta                       89.99000
_cell_angle_gamma                      90.07000
_symmetry_space_group_name_H-M         "P 1"
_symmetry_Int_Tables_number            1

loop_
_symmetry_equiv_pos_as_xyz
   "x, y, z"

loop_
   _atom_site_label
   _atom_site_occupancy
   _atom_site_fract_x
   _atom_site_fract_y
   _atom_site_fract_z
   _atom_site_adp_type
   _atom_site_B_iso_or_equiv
   _atom_site_type_symbol
    H   1.0     0.054607     0.144646     0.689895  Biso 1.000000     H
    H   1.0     0.054590     0.644670     0.689918  Biso 1.000000     H
    H   1.0     0.554599     0.144664     0.689943  Biso 1.000000     H
    H   1.0     0.554622     0.644664     0.689903  Biso 1.000000     H
    H   1.0     0.053976     0.107324     0.814263  Biso 1.000000     H
    H   1.0     0.053931     0.607339     0.814285  Biso 1.000000     H
    H   1.0     0.553976     0.107326     0.814308  Biso 1.000000     H
    H   1.0     0.553982     0.607353     0.814275  Biso 1.000000     H
    H   1.0     0.344160     0.115305     0.817109  Biso 1.000000     H
    H   1.0     0.344114     0.615305     0.817165  Biso 1.000000     H
    H   1.0     0.844160     0.115297     0.817142  Biso 1.000000     H
    H   1.0     0.844166     0.615308     0.817125  Biso 1.000000     H
    H   1.0     0.344800     0.152670     0.692763  Biso 1.000000     H
    H   1.0     0.344784     0.652679     0.692819  Biso 1.000000     H
    H   1.0     0.844794     0.152677     0.692799  Biso 1.000000     H
    H   1.0     0.844817     0.652664     0.692775  Biso 1.000000     H
    H   1.0     0.199443     0.357423     0.493418  Biso 1.000000     H
    H   1.0     0.199455     0.857408     0.492927  Biso 1.000000     H
    H   1.0     0.699451     0.357409     0.493011  Biso 1.000000     H
    H   1.0     0.699463     0.857413     0.493182  Biso 1.000000     H
    H   1.0     0.304719     0.355290     0.310255  Biso 1.000000     H
    H   1.0     0.304675     0.855289     0.310262  Biso 1.000000     H
    H   1.0     0.804659     0.355271     0.310257  Biso 1.000000     H
    H   1.0     0.804739     0.855307     0.310249  Biso 1.000000     H
    H   1.0     0.303897     0.392618     0.185883  Biso 1.000000     H
    H   1.0     0.303857     0.892612     0.185890  Biso 1.000000     H
    H   1.0     0.803844     0.392596     0.185886  Biso 1.000000     H
    H   1.0     0.803942     0.892631     0.185877  Biso 1.000000     H
    H   1.0     0.093990     0.384797     0.182626  Biso 1.000000     H
    H   1.0     0.094086     0.884789     0.182627  Biso 1.000000     H
    H   1.0     0.594057     0.384788     0.182603  Biso 1.000000     H
    H   1.0     0.594018     0.884804     0.182625  Biso 1.000000     H
    H   1.0     0.094812     0.347426     0.306972  Biso 1.000000     H
    H   1.0     0.094891     0.847411     0.306969  Biso 1.000000     H
    H   1.0     0.594886     0.347404     0.306944  Biso 1.000000     H
    H   1.0     0.594844     0.847433     0.306969  Biso 1.000000     H
    H   1.0     0.449069     0.142628     0.506988  Biso 1.000000     H
    H   1.0     0.449084     0.642631     0.506866  Biso 1.000000     H
    H   1.0     0.949082     0.142627     0.506920  Biso 1.000000     H
    H   1.0     0.949089     0.642632     0.506948  Biso 1.000000     H
    H   1.0     0.054711     0.105390     0.189854  Biso 1.000000     H
    H   1.0     0.054736     0.605399     0.189948  Biso 1.000000     H
    H   1.0     0.554725     0.105362     0.189926  Biso 1.000000     H
    H   1.0     0.554719     0.605388     0.189905  Biso 1.000000     H
    H   1.0     0.054135     0.142717     0.314230  Biso 1.000000     H
    H   1.0     0.054235     0.642740     0.314319  Biso 1.000000     H
    H   1.0     0.554176     0.142697     0.314300  Biso 1.000000     H
    H   1.0     0.554199     0.642714     0.314280  Biso 1.000000     H
    H   1.0     0.344292     0.134694     0.317158  Biso 1.000000     H
    H   1.0     0.344392     0.634698     0.317151  Biso 1.000000     H
    H   1.0     0.844335     0.134699     0.317183  Biso 1.000000     H
    H   1.0     0.844357     0.634694     0.317132  Biso 1.000000     H
    H   1.0     0.344877     0.097325     0.192802  Biso 1.000000     H
    H   1.0     0.344902     0.597313     0.192799  Biso 1.000000     H
    H   1.0     0.844891     0.097321     0.192830  Biso 1.000000     H
    H   1.0     0.844887     0.597326     0.192775  Biso 1.000000     H
    H   1.0     0.199005     0.392623    -0.006965  Biso 1.000000     H
    H   1.0     0.199010     0.892620    -0.006791  Biso 1.000000     H
    H   1.0     0.699013     0.392614    -0.006854  Biso 1.000000     H
    H   1.0     0.699019     0.892627    -0.006917  Biso 1.000000     H
    H   1.0     0.304597     0.394634     0.810020  Biso 1.000000     H
    H   1.0     0.304693     0.894593     0.809955  Biso 1.000000     H
    H   1.0     0.804682     0.394607     0.809964  Biso 1.000000     H
    H   1.0     0.804629     0.894612     0.810000  Biso 1.000000     H
    H   1.0     0.304055     0.357295     0.685649  Biso 1.000000     H
    H   1.0     0.304285     0.857264     0.685583  Biso 1.000000     H
    H   1.0     0.804252     0.357275     0.685592  Biso 1.000000     H
    H   1.0     0.804140     0.857283     0.685627  Biso 1.000000     H
    H   1.0     0.094419     0.365367     0.682910  Biso 1.000000     H
    H   1.0     0.094306     0.865370     0.682864  Biso 1.000000     H
    H   1.0     0.594238     0.365350     0.682821  Biso 1.000000     H
    H   1.0     0.594468     0.865379     0.682925  Biso 1.000000     H
    H   1.0     0.094857     0.402747     0.807266  Biso 1.000000     H
    H   1.0     0.094804     0.902741     0.807222  Biso 1.000000     H
    H   1.0     0.594788     0.402730     0.807175  Biso 1.000000     H
    H   1.0     0.594885     0.902756     0.807283  Biso 1.000000     H
    H   1.0     0.449360     0.107394     0.000000  Biso 1.000000     H
    H   1.0     0.449360     0.607401     0.000000  Biso 1.000000     H
    H   1.0     0.949374     0.107400     0.000000  Biso 1.000000     H
    H   1.0     0.949363     0.607403     0.000000  Biso 1.000000     H
    C   1.0     0.200227     0.173970     0.610763  Biso 1.000000     C
    C   1.0     0.200226     0.674024     0.610820  Biso 1.000000     C
    C   1.0     0.700219     0.174023     0.610821  Biso 1.000000     C
    C   1.0     0.700246     0.673985     0.610778  Biso 1.000000     C
    C   1.0     0.199766     0.150361     0.684245  Biso 1.000000     C
    C   1.0     0.199750     0.650375     0.684287  Biso 1.000000     C
    C   1.0     0.699758     0.150377     0.684290  Biso 1.000000     C
    C   1.0     0.699782     0.650357     0.684253  Biso 1.000000     C
    C   1.0     0.117478     0.137970     0.718300  Biso 1.000000     C
    C   1.0     0.117453     0.637988     0.718331  Biso 1.000000     C
    C   1.0     0.617471     0.137982     0.718345  Biso 1.000000     C
    C   1.0     0.617491     0.637987     0.718310  Biso 1.000000     C
    C   1.0     0.117099     0.117655     0.787106  Biso 1.000000     C
    C   1.0     0.117059     0.617667     0.787134  Biso 1.000000     C
    C   1.0     0.617097     0.117657     0.787148  Biso 1.000000     C
    C   1.0     0.617107     0.617674     0.787117  Biso 1.000000     C
    C   1.0     0.198989     0.109648     0.822757  Biso 1.000000     C
    C   1.0     0.198942     0.609661     0.822794  Biso 1.000000     C
    C   1.0     0.698990     0.109649     0.822794  Biso 1.000000     C
    C   1.0     0.698995     0.609670     0.822770  Biso 1.000000     C
    C   1.0     0.281287     0.122093     0.788724  Biso 1.000000     C
    C   1.0     0.281249     0.622097     0.788771  Biso 1.000000     C
    C   1.0     0.781287     0.122090     0.788759  Biso 1.000000     C
    C   1.0     0.781296     0.622098     0.788737  Biso 1.000000     C
    C   1.0     0.281655     0.142428     0.719921  Biso 1.000000     C
    C   1.0     0.281633     0.642439     0.719970  Biso 1.000000     C
    C   1.0     0.781651     0.142434     0.719959  Biso 1.000000     C
    C   1.0     0.781669     0.642431     0.719933  Biso 1.000000     C
    C   1.0     0.198523     0.085172     0.895979  Biso 1.000000     C
    C   1.0     0.198461     0.585180     0.896014  Biso 1.000000     C
    C   1.0     0.698526     0.085172     0.896016  Biso 1.000000     C
    C   1.0     0.698526     0.585180     0.895989  Biso 1.000000     C
    C   1.0     0.450450     0.326000     0.389140  Biso 1.000000     C
    C   1.0     0.450391     0.826031     0.389164  Biso 1.000000     C
    C   1.0     0.950376     0.326014     0.389160  Biso 1.000000     C
    C   1.0     0.950454     0.826021     0.389154  Biso 1.000000     C
    C   1.0     0.449880     0.349639     0.315674  Biso 1.000000     C
    C   1.0     0.449836     0.849659     0.315693  Biso 1.000000     C
    C   1.0     0.949821     0.349643     0.315690  Biso 1.000000     C
    C   1.0     0.949900     0.849659     0.315687  Biso 1.000000     C
    C   1.0     0.367541     0.361999     0.281753  Biso 1.000000     C
    C   1.0     0.367499     0.862004     0.281764  Biso 1.000000     C
    C   1.0     0.867484     0.361988     0.281761  Biso 1.000000     C
    C   1.0     0.867568     0.862013     0.281755  Biso 1.000000     C
    C   1.0     0.367051     0.382318     0.212949  Biso 1.000000     C
    C   1.0     0.367011     0.882318     0.212959  Biso 1.000000     C
    C   1.0     0.866998     0.382304     0.212956  Biso 1.000000     C
    C   1.0     0.867091     0.882329     0.212951  Biso 1.000000     C
    C   1.0     0.448878     0.390365     0.177176  Biso 1.000000     C
    C   1.0     0.448839     0.890371     0.177189  Biso 1.000000     C
    C   1.0     0.948827     0.390359     0.177189  Biso 1.000000     C
    C   1.0     0.948924     0.890371     0.177184  Biso 1.000000     C
    C   1.0     0.031161     0.377967     0.211100  Biso 1.000000     C
    C   1.0     0.031252     0.877968     0.211098  Biso 1.000000     C
    C   1.0     0.531230     0.377963     0.211080  Biso 1.000000     C
    C   1.0     0.531189     0.877976     0.211099  Biso 1.000000     C
    C   1.0     0.031635     0.357629     0.279900  Biso 1.000000     C
    C   1.0     0.031718     0.857627     0.279897  Biso 1.000000     C
    C   1.0     0.531709     0.357620     0.279878  Biso 1.000000     C
    C   1.0     0.531666     0.857638     0.279900  Biso 1.000000     C
    C   1.0     0.448324     0.414835     0.103954  Biso 1.000000     C
    C   1.0     0.448292     0.914845     0.103969  Biso 1.000000     C
    C   1.0     0.948282     0.414831     0.103969  Biso 1.000000     C
    C   1.0     0.948382     0.914850     0.103965  Biso 1.000000     C
    C   1.0     0.200304     0.076042     0.110771  Biso 1.000000     C
    C   1.0     0.200298     0.576027     0.110818  Biso 1.000000     C
    C   1.0     0.700308     0.076015     0.110823  Biso 1.000000     C
    C   1.0     0.700286     0.576039     0.110783  Biso 1.000000     C
    C   1.0     0.199861     0.099654     0.184251  Biso 1.000000     C
    C   1.0     0.199882     0.599646     0.184296  Biso 1.000000     C
    C   1.0     0.699873     0.099637     0.184300  Biso 1.000000     C
    C   1.0     0.699867     0.599655     0.184261  Biso 1.000000     C
    C   1.0     0.117590     0.112058     0.218277  Biso 1.000000     C
    C   1.0     0.117633     0.612068     0.218349  Biso 1.000000     C
    C   1.0     0.617610     0.112038     0.218339  Biso 1.000000     C
    C   1.0     0.617612     0.612057     0.218311  Biso 1.000000     C
    C   1.0     0.117236     0.132375     0.287086  Biso 1.000000     C
    C   1.0     0.117322     0.632392     0.287158  Biso 1.000000     C
    C   1.0     0.617273     0.132360     0.287148  Biso 1.000000     C
    C   1.0     0.617290     0.632375     0.287121  Biso 1.000000     C
    C   1.0     0.199134     0.140367     0.322758  Biso 1.000000     C
    C   1.0     0.199246     0.640387     0.322801  Biso 1.000000     C
    C   1.0     0.699180     0.140362     0.322808  Biso 1.000000     C
    C   1.0     0.699207     0.640365     0.322771  Biso 1.000000     C
    C   1.0     0.281414     0.127913     0.288752  Biso 1.000000     C
    C   1.0     0.281499     0.627918     0.288765  Biso 1.000000     C
    C   1.0     0.781450     0.127912     0.288787  Biso 1.000000     C
    C   1.0     0.781468     0.627913     0.288740  Biso 1.000000     C
    C   1.0     0.281756     0.107578     0.219948  Biso 1.000000     C
    C   1.0     0.281798     0.607575     0.219964  Biso 1.000000     C
    C   1.0     0.781776     0.107571     0.219985  Biso 1.000000     C
    C   1.0     0.781778     0.607578     0.219938  Biso 1.000000     C
    C   1.0     0.198730     0.164830     0.395982  Biso 1.000000     C
    C   1.0     0.198924     0.664845     0.396031  Biso 1.000000     C
    C   1.0     0.698803     0.164832     0.396035  Biso 1.000000     C
    C   1.0     0.698857     0.664832     0.395995  Biso 1.000000     C
    C   1.0     0.450188     0.424011     0.889151  Biso 1.000000     C
    C   1.0     0.450213     0.923999     0.889174  Biso 1.000000     C
    C   1.0     0.950213     0.423995     0.889172  Biso 1.000000     C
    C   1.0     0.950190     0.924002     0.889166  Biso 1.000000     C
    C   1.0     0.449752     0.400388     0.815675  Biso 1.000000     C
    C   1.0     0.449841     0.900376     0.815697  Biso 1.000000     C
    C   1.0     0.949831     0.400380     0.815693  Biso 1.000000     C
    C   1.0     0.949781     0.900376     0.815690  Biso 1.000000     C
    C   1.0     0.367487     0.387970     0.781618  Biso 1.000000     C
    C   1.0     0.367614     0.887945     0.781588  Biso 1.000000     C
    C   1.0     0.867598     0.387953     0.781592  Biso 1.000000     C
    C   1.0     0.867531     0.887958     0.781611  Biso 1.000000     C
    C   1.0     0.367158     0.367645     0.712812  Biso 1.000000     C
    C   1.0     0.367363     0.867623     0.712778  Biso 1.000000     C
    C   1.0     0.867334     0.367630     0.712783  Biso 1.000000     C
    C   1.0     0.867233     0.867636     0.712803  Biso 1.000000     C
    C   1.0     0.449076     0.359661     0.677169  Biso 1.000000     C
    C   1.0     0.449330     0.859660     0.677189  Biso 1.000000     C
    C   1.0     0.949291     0.359658     0.677185  Biso 1.000000     C
    C   1.0     0.949169     0.859665     0.677179  Biso 1.000000     C
    C   1.0     0.031509     0.372135     0.711267  Biso 1.000000     C
    C   1.0     0.031407     0.872135     0.711237  Biso 1.000000     C
    C   1.0     0.531350     0.372125     0.711206  Biso 1.000000     C
    C   1.0     0.531555     0.872142     0.711280  Biso 1.000000     C
    C   1.0     0.031761     0.392476     0.780068  Biso 1.000000     C
    C   1.0     0.031694     0.892475     0.780040  Biso 1.000000     C
    C   1.0     0.531667     0.392467     0.780008  Biso 1.000000     C
    C   1.0     0.531795     0.892482     0.780080  Biso 1.000000     C
    C   1.0     0.448662     0.335195     0.603942  Biso 1.000000     C
    C   1.0     0.449079     0.835191     0.603964  Biso 1.000000     C
    C   1.0     0.949004     0.335190     0.603959  Biso 1.000000     C
    C   1.0     0.948809     0.835192     0.603954  Biso 1.000000     C
    O   1.0     0.276678     0.183939     0.581946  Biso 1.000000     O
    O   1.0     0.276681     0.684027     0.582019  Biso 1.000000     O
    O   1.0     0.776672     0.184005     0.582011  Biso 1.000000     O
    O   1.0     0.776698     0.683975     0.581966  Biso 1.000000     O
    O   1.0     0.124143     0.183621     0.581288  Biso 1.000000     O
    O   1.0     0.124147     0.683687     0.581340  Biso 1.000000     O
    O   1.0     0.624137     0.183694     0.581348  Biso 1.000000     O
    O   1.0     0.624164     0.683638     0.581303  Biso 1.000000     O
    O   1.0     0.122111     0.074908     0.924802  Biso 1.000000     O
    O   1.0     0.122045     0.574919     0.924830  Biso 1.000000     O
    O   1.0     0.622115     0.074906     0.924837  Biso 1.000000     O
    O   1.0     0.622116     0.574916     0.924811  Biso 1.000000     O
    O   1.0     0.274606     0.074842     0.925274  Biso 1.000000     O
    O   1.0     0.274544     0.574853     0.925311  Biso 1.000000     O
    O   1.0     0.774614     0.074845     0.925307  Biso 1.000000     O
    O   1.0     0.774612     0.574850     0.925281  Biso 1.000000     O
    O   1.0     0.199411     0.303889     0.497061  Biso 1.000000     O
    O   1.0     0.199442     0.803919     0.497109  Biso 1.000000     O
    O   1.0     0.699420     0.303913     0.497123  Biso 1.000000     O
    O   1.0     0.699448     0.803898     0.497055  Biso 1.000000     O
    O   1.0     0.026822     0.315953     0.417857  Biso 1.000000     O
    O   1.0     0.026905     0.815943     0.417843  Biso 1.000000     O
    O   1.0     0.526924     0.315937     0.417822  Biso 1.000000     O
    O   1.0     0.526854     0.815954     0.417859  Biso 1.000000     O
    O   1.0     0.374394     0.316411     0.418740  Biso 1.000000     O
    O   1.0     0.374322     0.816465     0.418751  Biso 1.000000     O
    O   1.0     0.874308     0.316438     0.418747  Biso 1.000000     O
    O   1.0     0.874391     0.816442     0.418744  Biso 1.000000     O
    O   1.0     0.371914     0.425120     0.075204  Biso 1.000000     O
    O   1.0     0.371888     0.925125     0.075209  Biso 1.000000     O
    O   1.0     0.871878     0.425114     0.075209  Biso 1.000000     O
    O   1.0     0.871975     0.925132     0.075209  Biso 1.000000     O
    O   1.0     0.024357     0.425140     0.074614  Biso 1.000000     O
    O   1.0     0.024455     0.925154     0.074606  Biso 1.000000     O
    O   1.0     0.524412     0.425137     0.074589  Biso 1.000000     O
    O   1.0     0.524384     0.925152     0.074613  Biso 1.000000     O
    O   1.0     0.449299     0.196124     0.502884  Biso 1.000000     O
    O   1.0     0.449334     0.696138     0.502893  Biso 1.000000     O
    O   1.0     0.949313     0.196130     0.502896  Biso 1.000000     O
    O   1.0     0.949336     0.696131     0.502880  Biso 1.000000     O
    O   1.0     0.276730     0.066066     0.081970  Biso 1.000000     O
    O   1.0     0.276718     0.566055     0.082005  Biso 1.000000     O
    O   1.0     0.776734     0.066035     0.082022  Biso 1.000000     O
    O   1.0     0.776706     0.566069     0.081969  Biso 1.000000     O
    O   1.0     0.124199     0.066397     0.081276  Biso 1.000000     O
    O   1.0     0.124186     0.566372     0.081334  Biso 1.000000     O
    O   1.0     0.624202     0.066369     0.081328  Biso 1.000000     O
    O   1.0     0.624174     0.566387     0.081300  Biso 1.000000     O
    O   1.0     0.122361     0.175112     0.424818  Biso 1.000000     O
    O   1.0     0.122582     0.675131     0.424903  Biso 1.000000     O
    O   1.0     0.622442     0.175118     0.424880  Biso 1.000000     O
    O   1.0     0.622506     0.675117     0.424855  Biso 1.000000     O
    O   1.0     0.274854     0.175139     0.425269  Biso 1.000000     O
    O   1.0     0.275084     0.675141     0.425275  Biso 1.000000     O
    O   1.0     0.774943     0.175139     0.425303  Biso 1.000000     O
    O   1.0     0.775002     0.675139     0.425253  Biso 1.000000     O
    O   1.0     0.199173     0.446125     0.997089  Biso 1.000000     O
    O   1.0     0.199183     0.946138     0.997080  Biso 1.000000     O
    O   1.0     0.699181     0.446128     0.997079  Biso 1.000000     O
    O   1.0     0.699192     0.946133     0.997100  Biso 1.000000     O
    O   1.0     0.026619     0.433943     0.918012  Biso 1.000000     O
    O   1.0     0.026607     0.933965     0.917984  Biso 1.000000     O
    O   1.0     0.526631     0.433970     0.917956  Biso 1.000000     O
    O   1.0     0.526634     0.933956     0.918015  Biso 1.000000     O
    O   1.0     0.374096     0.433678     0.918639  Biso 1.000000     O
    O   1.0     0.374099     0.933671     0.918625  Biso 1.000000     O
    O   1.0     0.874102     0.433664     0.918629  Biso 1.000000     O
    O   1.0     0.874088     0.933671     0.918638  Biso 1.000000     O
    O   1.0     0.372256     0.324923     0.575130  Biso 1.000000     O
    O   1.0     0.372739     0.824904     0.575067  Biso 1.000000     O
    O   1.0     0.872651     0.324900     0.575082  Biso 1.000000     O
    O   1.0     0.872423     0.824920     0.575115  Biso 1.000000     O
    O   1.0     0.025136     0.324886     0.574723  Biso 1.000000     O
    O   1.0     0.024907     0.824876     0.574678  Biso 1.000000     O
    O   1.0     0.524757     0.324875     0.574641  Biso 1.000000     O
    O   1.0     0.525239     0.824890     0.574745  Biso 1.000000     O
    O   1.0     0.449312     0.053888     0.002899  Biso 1.000000     O
    O   1.0     0.449303     0.553900     0.002895  Biso 1.000000     O
    O   1.0     0.949321     0.053891     0.002896  Biso 1.000000     O
    O   1.0     0.949310     0.553894     0.002907  Biso 1.000000     O
   Sc   1.0     0.324418     0.250086     0.499729  Biso 1.000000    Sc
   Sc   1.0     0.324482     0.750135     0.499797  Biso 1.000000    Sc
   Sc   1.0     0.824453     0.250115     0.499786  Biso 1.000000    Sc
   Sc   1.0     0.824465     0.750108     0.499753  Biso 1.000000    Sc
   Sc   1.0     0.074437     0.249911     0.500178  Biso 1.000000    Sc
   Sc   1.0     0.074457     0.749927     0.500201  Biso 1.000000    Sc
   Sc   1.0     0.574424     0.249934     0.500212  Biso 1.000000    Sc
   Sc   1.0     0.574482     0.749909     0.500175  Biso 1.000000    Sc
   Sc   1.0     0.324271     0.499966     0.999706  Biso 1.000000    Sc
   Sc   1.0     0.324283     0.999970     0.999688  Biso 1.000000    Sc
   Sc   1.0     0.824281     0.499962     0.999694  Biso 1.000000    Sc
   Sc   1.0     0.824295     0.999966     0.999717  Biso 1.000000    Sc
   Sc   1.0     0.074292     0.000061     0.000248  Biso 1.000000    Sc
   Sc   1.0     0.074272     0.500055     0.000291  Biso 1.000000    Sc
   Sc   1.0     0.574295     0.000053     0.000285  Biso 1.000000    Sc
   Sc   1.0     0.574285     0.500063     0.000252  Biso 1.000000    Sc
