#======================================================================

# CRYSTAL DATA

#----------------------------------------------------------------------

data_VESTA_phase_1


_pd_phase_name                         MOF
_cell_length_a                         14.89600
_cell_length_b                         13.67200
_cell_length_c                         16.38900
_cell_angle_alpha                      89.87400
_cell_angle_beta                       91.47200
_cell_angle_gamma                      89.99700
_symmetry_space_group_name_H-M         "P 1"
_symmetry_Int_Tables_number            1

loop_
_symmetry_equiv_pos_as_xyz
   "x, y, z"

loop_
   _atom_site_label
   _atom_site_occupancy
   _atom_site_fract_x
   _atom_site_fract_y
   _atom_site_fract_z
   _atom_site_adp_type
   _atom_site_B_iso_or_equiv
   _atom_site_type_symbol
    H   1.0    -0.027084     0.543753     0.907730  Biso 1.000000     H
    H   1.0     0.473065     0.547993     0.908003  Biso 1.000000     H
    H   1.0     0.016810     0.508793     0.827214  Biso 1.000000     H
    H   1.0     0.516195     0.514792     0.826683  Biso 1.000000     H
    H   1.0     0.276594     0.888534     0.044395  Biso 1.000000     H
    H   1.0     0.776553     0.888388     0.044221  Biso 1.000000     H
    H   1.0     0.360068     0.855572     0.099399  Biso 1.000000     H
    H   1.0     0.859934     0.855193     0.099191  Biso 1.000000     H
    H   1.0     0.465560     0.390469     0.455338  Biso 1.000000     H
    H   1.0     0.965531     0.390447     0.455196  Biso 1.000000     H
    H   1.0     0.381920     0.358749     0.400235  Biso 1.000000     H
    H   1.0     0.881763     0.358670     0.400242  Biso 1.000000     H
    H   1.0     0.271737     0.042553     0.592230  Biso 1.000000     H
    H   1.0     0.771739     0.042651     0.592270  Biso 1.000000     H
    H   1.0     0.229076     0.004070     0.672464  Biso 1.000000     H
    H   1.0     0.728985     0.003988     0.672413  Biso 1.000000     H
    H   1.0     0.519374     0.456233     0.092180  Biso 1.000000     H
    H   1.0     0.000000     0.454578     0.092455  Biso 1.000000     H
    H   1.0     0.475506     0.490980     0.172767  Biso 1.000000     H
    H   1.0     0.976357     0.490051     0.173114  Biso 1.000000     H
    H   1.0     0.215623     0.111466     0.955607  Biso 1.000000     H
    H   1.0     0.715657     0.111645     0.955765  Biso 1.000000     H
    H   1.0     0.132168     0.144424     0.900581  Biso 1.000000     H
    H   1.0     0.632289     0.144848     0.900787  Biso 1.000000     H
    H   1.0     0.026624     0.609519     0.544624  Biso 1.000000     H
    H   1.0     0.526667     0.609575     0.544796  Biso 1.000000     H
    H   1.0     0.110222     0.641254     0.599768  Biso 1.000000     H
    H   1.0     0.610464     0.641398     0.599704  Biso 1.000000     H
    H   1.0     0.220451     0.957472     0.407765  Biso 1.000000     H
    H   1.0     0.720456     0.957366     0.407729  Biso 1.000000     H
    H   1.0     0.263126     0.995886     0.327515  Biso 1.000000     H
    H   1.0     0.763212     0.995909     0.327549  Biso 1.000000     H
    H   1.0     0.359788     0.704791     0.757108  Biso 1.000000     H
    H   1.0     0.861500     0.703774     0.757446  Biso 1.000000     H
    H   1.0     0.217207     0.379236     0.713955  Biso 1.000000     H
    H   1.0     0.716592     0.379470     0.713779  Biso 1.000000     H
    H   1.0     0.110524     0.795789     0.257988  Biso 1.000000     H
    H   1.0     0.610379     0.795541     0.257799  Biso 1.000000     H
    H   1.0     0.467167     0.120865     0.213444  Biso 1.000000     H
    H   1.0     0.967060     0.120964     0.213476  Biso 1.000000     H
    H   1.0     0.132368     0.295265     0.242879  Biso 1.000000     H
    H   1.0     0.630811     0.296225     0.242482  Biso 1.000000     H
    H   1.0     0.275024     0.620780     0.286071  Biso 1.000000     H
    H   1.0     0.775477     0.620649     0.286225  Biso 1.000000     H
    H   1.0     0.381700     0.204245     0.742019  Biso 1.000000     H
    H   1.0     0.881838     0.204509     0.742197  Biso 1.000000     H
    H   1.0     0.025033     0.879184     0.786554  Biso 1.000000     H
    H   1.0     0.525154     0.879058     0.786517  Biso 1.000000     H
   Li   1.0     0.210189     0.646053     0.070999  Biso 1.000000    Li
   Li   1.0     0.709976     0.645498     0.070832  Biso 1.000000    Li
   Li   1.0     0.140875     0.510300     0.934801  Biso 1.000000    Li
   Li   1.0     0.640870     0.511540     0.934096  Biso 1.000000    Li
   Li   1.0     0.428179     0.828281     0.957433  Biso 1.000000    Li
   Li   1.0     0.928765     0.828123     0.957593  Biso 1.000000    Li
   Li   1.0     0.409312     0.000000     0.020667  Biso 1.000000    Li
   Li   1.0     0.909349     0.000000     0.020741  Biso 1.000000    Li
   Li   1.0     0.314691     0.329029     0.542392  Biso 1.000000    Li
   Li   1.0     0.814547     0.329020     0.542184  Biso 1.000000    Li
   Li   1.0     0.332637     0.512502     0.479330  Biso 1.000000    Li
   Li   1.0     0.832621     0.512468     0.479285  Biso 1.000000    Li
   Li   1.0     0.032419     0.145015     0.429049  Biso 1.000000    Li
   Li   1.0     0.532341     0.145062     0.428938  Biso 1.000000    Li
   Li   1.0     0.102548     0.010112     0.566255  Biso 1.000000    Li
   Li   1.0     0.602582     0.009974     0.566128  Biso 1.000000    Li
   Li   1.0     0.282017     0.353959     0.928997  Biso 1.000000    Li
   Li   1.0     0.782348     0.354722     0.929149  Biso 1.000000    Li
   Li   1.0     0.351343     0.489771     0.065172  Biso 1.000000    Li
   Li   1.0     0.851388     0.488912     0.065870  Biso 1.000000    Li
   Li   1.0     0.064062     0.171737     0.042513  Biso 1.000000    Li
   Li   1.0     0.563498     0.171926     0.042380  Biso 1.000000    Li
   Li   1.0     0.082902    -0.010933     0.979326  Biso 1.000000    Li
   Li   1.0     0.582864    -0.010838     0.979244  Biso 1.000000    Li
   Li   1.0     0.177511     0.670990     0.457625  Biso 1.000000    Li
   Li   1.0     0.677646     0.670987     0.457773  Biso 1.000000    Li
   Li   1.0     0.159557     0.487494     0.520679  Biso 1.000000    Li
   Li   1.0     0.659560     0.487520     0.520688  Biso 1.000000    Li
   Li   1.0     0.459763     0.855014     0.570941  Biso 1.000000    Li
   Li   1.0     0.959860     0.854963     0.571052  Biso 1.000000    Li
   Li   1.0     0.389637     0.989919     0.433746  Biso 1.000000    Li
   Li   1.0     0.889606     0.990062     0.433871  Biso 1.000000    Li
    C   1.0     0.295760     0.581987     0.814117  Biso 1.000000     C
    C   1.0     0.796807     0.581260     0.814281  Biso 1.000000     C
    C   1.0     0.252730     0.488703     0.802935  Biso 1.000000     C
    C   1.0     0.752906     0.488474     0.802899  Biso 1.000000     C
    C   1.0     0.071155     0.905325     0.169603  Biso 1.000000     C
    C   1.0     0.571005     0.905105     0.169430  Biso 1.000000     C
    C   1.0     0.031316     0.999659     0.154978  Biso 1.000000     C
    C   1.0     0.531284     0.999526     0.154878  Biso 1.000000     C
    C   1.0     0.171633     0.404826     0.330865  Biso 1.000000     C
    C   1.0     0.670990     0.405223     0.330652  Biso 1.000000     C
    C   1.0     0.211099     0.499351     0.345081  Biso 1.000000     C
    C   1.0     0.710873     0.499516     0.345037  Biso 1.000000     C
    C   1.0     0.446191     0.081619     0.685549  Biso 1.000000     C
    C   1.0     0.946177     0.081834     0.685660  Biso 1.000000     C
    C   1.0     0.489426    -0.011555     0.697120  Biso 1.000000     C
    C   1.0     0.989370    -0.011379     0.697190  Biso 1.000000     C
    C   1.0     0.196426     0.418061     0.185885  Biso 1.000000     C
    C   1.0     0.695427     0.418814     0.185678  Biso 1.000000     C
    C   1.0     0.239485     0.511327     0.197079  Biso 1.000000     C
    C   1.0     0.739245     0.511636     0.197083  Biso 1.000000     C
    C   1.0     0.421056     0.094695     0.830398  Biso 1.000000     C
    C   1.0     0.921215     0.094952     0.830573  Biso 1.000000     C
    C   1.0     0.460887     0.000357     0.845017  Biso 1.000000     C
    C   1.0     0.960929     0.000524     0.845122  Biso 1.000000     C
    C   1.0     0.320581     0.595187     0.669137  Biso 1.000000     C
    C   1.0     0.821205     0.594802     0.669298  Biso 1.000000     C
    C   1.0     0.281116     0.500659     0.654931  Biso 1.000000     C
    C   1.0     0.781283     0.500526     0.654936  Biso 1.000000     C
    C   1.0     0.046009     0.918405     0.314448  Biso 1.000000     C
    C   1.0     0.546028     0.918210     0.314337  Biso 1.000000     C
    C   1.0     0.002767     0.000000     0.302873  Biso 1.000000     C
    C   1.0     0.502831     0.000000     0.302806  Biso 1.000000     C
    C   1.0     0.328188     0.633826     0.747774  Biso 1.000000     C
    C   1.0     0.829372     0.633103     0.748021  Biso 1.000000     C
    C   1.0     0.248512     0.450651     0.723006  Biso 1.000000     C
    C   1.0     0.748393     0.450609     0.722925  Biso 1.000000     C
    C   1.0     0.078758     0.866673     0.248376  Biso 1.000000     C
    C   1.0     0.578654     0.866454     0.248211  Biso 1.000000     C
    C   1.0    -0.001402     0.049671     0.222822  Biso 1.000000     C
    C   1.0     0.498659     0.049539     0.222763  Biso 1.000000     C
    C   1.0     0.163999     0.366212     0.252222  Biso 1.000000     C
    C   1.0     0.662877     0.366927     0.251923  Biso 1.000000     C
    C   1.0     0.243709     0.549371     0.277011  Biso 1.000000     C
    C   1.0     0.743722     0.549487     0.277063  Biso 1.000000     C
    C   1.0     0.413454     0.133353     0.751627  Biso 1.000000     C
    C   1.0     0.913562     0.133597     0.751790  Biso 1.000000     C
    C   1.0     0.493605     0.950348     0.777172  Biso 1.000000     C
    C   1.0     0.993551     0.950512     0.777236  Biso 1.000000     C
    O   1.0     0.223326     0.629812     0.954256  Biso 1.000000     O
    O   1.0     0.724940     0.629782     0.954374  Biso 1.000000     O
    O   1.0     0.355236     0.723330     0.907713  Biso 1.000000     O
    O   1.0     0.858792     0.720624     0.909025  Biso 1.000000     O
    O   1.0     0.030641     0.541062     0.878782  Biso 1.000000     O
    O   1.0     0.530699     0.545231     0.878894  Biso 1.000000     O
    O   1.0     0.371789     0.553491     0.958183  Biso 1.000000     O
    O   1.0     0.871873     0.549888     0.958077  Biso 1.000000     O
    O   1.0     0.218623     0.441410     0.864891  Biso 1.000000     O
    O   1.0     0.718327     0.441432     0.864764  Biso 1.000000     O
    O   1.0     0.522663     0.803137     0.040715  Biso 1.000000     O
    O   1.0     0.000000     0.803339     0.040979  Biso 1.000000     O
    O   1.0     0.156158     0.750585     0.122435  Biso 1.000000     O
    O   1.0     0.656046     0.750377     0.122108  Biso 1.000000     O
    O   1.0     0.344042     0.888424     0.048229  Biso 1.000000     O
    O   1.0     0.843990     0.888295     0.048113  Biso 1.000000     O
    O   1.0     0.163340     0.896124     0.034245  Biso 1.000000     O
    O   1.0     0.663149     0.896038     0.034066  Biso 1.000000     O
    O   1.0     0.023572     0.037656     0.079996  Biso 1.000000     O
    O   1.0     0.523541     0.037633     0.079934  Biso 1.000000     O
    O   1.0     0.218989     0.303276     0.460685  Biso 1.000000     O
    O   1.0     0.719236     0.303376     0.459860  Biso 1.000000     O
    O   1.0     0.086483     0.250187     0.378214  Biso 1.000000     O
    O   1.0     0.586290     0.250272     0.378079  Biso 1.000000     O
    O   1.0     0.398099     0.391342     0.451368  Biso 1.000000     O
    O   1.0     0.898067     0.391324     0.451318  Biso 1.000000     O
    O   1.0     0.078495     0.395964     0.465605  Biso 1.000000     O
    O   1.0     0.578585     0.395816     0.465771  Biso 1.000000     O
    O   1.0     0.218517     0.537489     0.419874  Biso 1.000000     O
    O   1.0     0.718521     0.537458     0.419896  Biso 1.000000     O
    O   1.0     0.019364     0.129594     0.545785  Biso 1.000000     O
    O   1.0     0.519369     0.129462     0.545670  Biso 1.000000     O
    O   1.0     0.386854     0.222596     0.590699  Biso 1.000000     O
    O   1.0     0.886923     0.222903     0.590795  Biso 1.000000     O
    O   1.0     0.214258     0.037202     0.621381  Biso 1.000000     O
    O   1.0     0.714222     0.037194     0.621351  Biso 1.000000     O
    O   1.0     0.371142     0.052449     0.541427  Biso 1.000000     O
    O   1.0     0.871078     0.052802     0.541487  Biso 1.000000     O
    O   1.0     0.523746     0.941262     0.635369  Biso 1.000000     O
    O   1.0     0.000000     0.941403     0.635433  Biso 1.000000     O
    O   1.0     0.268828     0.370262     0.045726  Biso 1.000000     O
    O   1.0     0.767539     0.370322     0.045691  Biso 1.000000     O
    O   1.0     0.136834     0.276855     0.092157  Biso 1.000000     O
    O   1.0     0.633629     0.279400     0.090902  Biso 1.000000     O
    O   1.0     0.461640     0.458944     0.121105  Biso 1.000000     O
    O   1.0     0.961989     0.458554     0.121328  Biso 1.000000     O
    O   1.0     0.120452     0.446788     0.041844  Biso 1.000000     O
    O   1.0     0.620494     0.450090     0.041790  Biso 1.000000     O
    O   1.0     0.273588     0.558617     0.135118  Biso 1.000000     O
    O   1.0     0.773811     0.558701     0.135237  Biso 1.000000     O
    O   1.0    -0.030476     0.196932     0.959299  Biso 1.000000     O
    O   1.0     0.469354     0.196680     0.959034  Biso 1.000000     O
    O   1.0     0.336021     0.249406     0.877576  Biso 1.000000     O
    O   1.0     0.836136     0.249669     0.877913  Biso 1.000000     O
    O   1.0     0.148173     0.111586     0.951763  Biso 1.000000     O
    O   1.0     0.648221     0.111727     0.951861  Biso 1.000000     O
    O   1.0     0.328867     0.103865     0.965758  Biso 1.000000     O
    O   1.0     0.829067     0.103985     0.965931  Biso 1.000000     O
    O   1.0     0.468631     0.962352     0.919997  Biso 1.000000     O
    O   1.0     0.968665     0.962395     0.920060  Biso 1.000000     O
    O   1.0     0.273205     0.696755     0.539336  Biso 1.000000     O
    O   1.0     0.772977     0.696637     0.540066  Biso 1.000000     O
    O   1.0     0.405736     0.749816     0.621784  Biso 1.000000     O
    O   1.0     0.905915     0.749729     0.621871  Biso 1.000000     O
    O   1.0     0.094084     0.608653     0.548628  Biso 1.000000     O
    O   1.0     0.594130     0.608672     0.548669  Biso 1.000000     O
    O   1.0     0.413691     0.604042     0.534391  Biso 1.000000     O
    O   1.0     0.913611     0.604174     0.534183  Biso 1.000000     O
    O   1.0     0.273678     0.462516     0.580141  Biso 1.000000     O
    O   1.0     0.773658     0.462539     0.580093  Biso 1.000000     O
    O   1.0     0.472825     0.870422     0.454207  Biso 1.000000     O
    O   1.0     0.972826     0.870548     0.454322  Biso 1.000000     O
    O   1.0     0.105355     0.777448     0.409310  Biso 1.000000     O
    O   1.0     0.605292     0.777154     0.409206  Biso 1.000000     O
    O   1.0     0.277933     0.962787     0.378616  Biso 1.000000     O
    O   1.0     0.777976     0.962789     0.378649  Biso 1.000000     O
    O   1.0     0.121032     0.947609     0.458569  Biso 1.000000     O
    O   1.0     0.621102     0.947263     0.458510  Biso 1.000000     O
    O   1.0    -0.031559     0.058749     0.364625  Biso 1.000000     O
    O   1.0     0.468531     0.058617     0.364565  Biso 1.000000     O
    S   1.0     0.312526     0.626485     0.913683  Biso 1.000000     S
    S   1.0     0.814177     0.624757     0.914075  Biso 1.000000     S
    S   1.0     0.104876     0.833708     0.087086  Biso 1.000000     S
    S   1.0     0.604706     0.833510     0.086842  Biso 1.000000     S
    S   1.0     0.137414     0.333346     0.413576  Biso 1.000000     S
    S   1.0     0.637282     0.333454     0.413321  Biso 1.000000     S
    S   1.0     0.429896     0.125882     0.585721  Biso 1.000000     S
    S   1.0     0.929886     0.126139     0.585824  Biso 1.000000     S
    S   1.0     0.179620     0.373665     0.086292  Biso 1.000000     S
    S   1.0     0.678211     0.375293     0.085871  Biso 1.000000     S
    S   1.0     0.387323     0.166299     0.912920  Biso 1.000000     S
    S   1.0     0.887494     0.166542     0.913164  Biso 1.000000     S
    S   1.0     0.354787     0.666668     0.586426  Biso 1.000000     S
    S   1.0     0.854920     0.666553     0.586622  Biso 1.000000     S
    S   1.0     0.062298     0.874153     0.414281  Biso 1.000000     S
    S   1.0     0.562311     0.873908     0.414174  Biso 1.000000     S
