#======================================================================

# CRYSTAL DATA

#----------------------------------------------------------------------

data_VESTA_phase_1


_pd_phase_name                         MOF
_cell_length_a                         18.42300
_cell_length_b                         18.43000
_cell_length_c                         18.43000
_cell_angle_alpha                      60.18700
_cell_angle_beta                       60.17500
_cell_angle_gamma                      60.17700
_symmetry_space_group_name_H-M         "P 1"
_symmetry_Int_Tables_number            1

loop_
_symmetry_equiv_pos_as_xyz
   "x, y, z"

loop_
   _atom_site_label
   _atom_site_occupancy
   _atom_site_fract_x
   _atom_site_fract_y
   _atom_site_fract_z
   _atom_site_adp_type
   _atom_site_B_iso_or_equiv
   _atom_site_type_symbol
    H   1.0     0.048444     0.568033     0.048455  Biso 1.000000     H
    H   1.0     0.568201     0.048087     0.335711  Biso 1.000000     H
    H   1.0     0.047708     0.335730     0.047721  Biso 1.000000     H
    H   1.0     0.335643     0.048170     0.568073  Biso 1.000000     H
    H   1.0     0.047703     0.047733     0.335721  Biso 1.000000     H
    H   1.0     0.568196     0.335720     0.048086  Biso 1.000000     H
    H   1.0     0.048441     0.048458     0.568028  Biso 1.000000     H
    H   1.0     0.335642     0.568073     0.048176  Biso 1.000000     H
    H   1.0     0.048132     0.335720     0.568080  Biso 1.000000     H
    H   1.0     0.568142     0.048395     0.048403  Biso 1.000000     H
    H   1.0     0.048138     0.568083     0.335710  Biso 1.000000     H
    H   1.0     0.335657     0.047757     0.047767  Biso 1.000000     H
    H   1.0     0.431870     0.951598     0.951576  Biso 1.000000     H
    H   1.0     0.951875     0.431910     0.664270  Biso 1.000000     H
    H   1.0     0.664355     0.952235     0.952212  Biso 1.000000     H
    H   1.0     0.951880     0.664273     0.431900  Biso 1.000000     H
    H   1.0     0.952308     0.952262     0.664259  Biso 1.000000     H
    H   1.0     0.664370     0.431921     0.951805  Biso 1.000000     H
    H   1.0     0.951569     0.951537     0.431952  Biso 1.000000     H
    H   1.0     0.431816     0.664273     0.951896  Biso 1.000000     H
    H   1.0     0.664370     0.951824     0.431907  Biso 1.000000     H
    H   1.0     0.951568     0.431960     0.951526  Biso 1.000000     H
    H   1.0     0.431811     0.951906     0.664269  Biso 1.000000     H
    H   1.0     0.952305     0.664264     0.952260  Biso 1.000000     H
    C   1.0     0.026835     0.538993     0.026848  Biso 1.000000     C
    C   1.0     0.539100     0.026639     0.407677  Biso 1.000000     C
    C   1.0     0.026429     0.407691     0.026445  Biso 1.000000     C
    C   1.0     0.407647     0.026680     0.539025  Biso 1.000000     C
    C   1.0     0.026461     0.026419     0.407684  Biso 1.000000     C
    C   1.0     0.539098     0.407684     0.026644  Biso 1.000000     C
    C   1.0     0.026869     0.026815     0.538988  Biso 1.000000     C
    C   1.0     0.407646     0.539028     0.026690  Biso 1.000000     C
    C   1.0     0.026627     0.407685     0.539027  Biso 1.000000     C
    C   1.0     0.539051     0.026840     0.026794  Biso 1.000000     C
    C   1.0     0.026630     0.539031     0.407676  Biso 1.000000     C
    C   1.0     0.407656     0.026488     0.026443  Biso 1.000000     C
    C   1.0     0.460961     0.973153     0.973186  Biso 1.000000     C
    C   1.0     0.973382     0.460961     0.592304  Biso 1.000000     C
    C   1.0     0.592356     0.973504     0.973537  Biso 1.000000     C
    C   1.0     0.973385     0.592308     0.460953  Biso 1.000000     C
    C   1.0     0.973551     0.973576     0.592297  Biso 1.000000     C
    C   1.0     0.592366     0.460966     0.973291  Biso 1.000000     C
    C   1.0     0.973143     0.973180     0.460993  Biso 1.000000     C
    C   1.0     0.460914     0.592309     0.973338  Biso 1.000000     C
    C   1.0     0.592366     0.973313     0.460956  Biso 1.000000     C
    C   1.0     0.973177     0.461001     0.973133  Biso 1.000000     C
    C   1.0     0.460913     0.973354     0.592303  Biso 1.000000     C
    C   1.0     0.973582     0.592303     0.973536  Biso 1.000000     C
    C   1.0     0.110931     0.388975     0.110983  Biso 1.000000     C
    C   1.0     0.053625     0.446332     0.053642  Biso 1.000000     C
    C   1.0     0.389100     0.111128     0.389067  Biso 1.000000     C
    C   1.0     0.446401     0.053673     0.446374  Biso 1.000000     C
    C   1.0     0.110943     0.110977     0.388968  Biso 1.000000     C
    C   1.0     0.053594     0.053676     0.446325  Biso 1.000000     C
    C   1.0     0.389098     0.389071     0.111120  Biso 1.000000     C
    C   1.0     0.446399     0.446380     0.053672  Biso 1.000000     C
    C   1.0     0.111090     0.389071     0.389066  Biso 1.000000     C
    C   1.0     0.053701     0.446384     0.446378  Biso 1.000000     C
    C   1.0     0.388971     0.110992     0.110967  Biso 1.000000     C
    C   1.0     0.446339     0.053614     0.053670  Biso 1.000000     C
    C   1.0     0.611042     0.889000     0.889013  Biso 1.000000     C
    C   1.0     0.553673     0.946379     0.946309  Biso 1.000000     C
    C   1.0     0.888922     0.610921     0.610914  Biso 1.000000     C
    C   1.0     0.946311     0.553608     0.553602  Biso 1.000000     C
    C   1.0     0.889068     0.889017     0.611012  Biso 1.000000     C
    C   1.0     0.946415     0.946320     0.553655  Biso 1.000000     C
    C   1.0     0.610915     0.610923     0.888861  Biso 1.000000     C
    C   1.0     0.553613     0.553614     0.946310  Biso 1.000000     C
    C   1.0     0.610913     0.888867     0.610913  Biso 1.000000     C
    C   1.0     0.553612     0.946321     0.553606  Biso 1.000000     C
    C   1.0     0.889082     0.611019     0.888997  Biso 1.000000     C
    C   1.0     0.946388     0.553662     0.946338  Biso 1.000000     C
    O   1.0     0.250001     0.249997     0.249995  Biso 1.000000     O
    O   1.0     0.750012     0.749996     0.749985  Biso 1.000000     O
    O   1.0     0.133202     0.428595     0.133182  Biso 1.000000     O
    O   1.0     0.428702     0.133326     0.305313  Biso 1.000000     O
    O   1.0     0.132842     0.305196     0.132996  Biso 1.000000     O
    O   1.0     0.305305     0.133244     0.428641  Biso 1.000000     O
    O   1.0     0.132828     0.133019     0.305188  Biso 1.000000     O
    O   1.0     0.428700     0.305319     0.133315  Biso 1.000000     O
    O   1.0     0.133204     0.133184     0.428590  Biso 1.000000     O
    O   1.0     0.305304     0.428642     0.133243  Biso 1.000000     O
    O   1.0     0.133261     0.305323     0.428631  Biso 1.000000     O
    O   1.0     0.428626     0.133195     0.133200  Biso 1.000000     O
    O   1.0     0.133264     0.428637     0.305316  Biso 1.000000     O
    O   1.0     0.305147     0.132956     0.132963  Biso 1.000000     O
    O   1.0     0.571386     0.866797     0.866779  Biso 1.000000     O
    O   1.0     0.866749     0.571355     0.694664  Biso 1.000000     O
    O   1.0     0.694865     0.867034     0.867019  Biso 1.000000     O
    O   1.0     0.866748     0.694670     0.571349  Biso 1.000000     O
    O   1.0     0.867180     0.866978     0.694793  Biso 1.000000     O
    O   1.0     0.694709     0.571351     0.866741  Biso 1.000000     O
    O   1.0     0.866814     0.866804     0.571391  Biso 1.000000     O
    O   1.0     0.571313     0.694674     0.866661  Biso 1.000000     O
    O   1.0     0.694708     0.866753     0.571338  Biso 1.000000     O
    O   1.0     0.866811     0.571399     0.866799  Biso 1.000000     O
    O   1.0     0.571311     0.866667     0.694667  Biso 1.000000     O
    O   1.0     0.867172     0.694798     0.866983  Biso 1.000000     O
   Zn   1.0     0.206677     0.380411     0.206689  Biso 1.000000    Zn
   Zn   1.0     0.380496     0.206695     0.206692  Biso 1.000000    Zn
   Zn   1.0     0.206252     0.206372     0.206361  Biso 1.000000    Zn
   Zn   1.0     0.206680     0.206691     0.380412  Biso 1.000000    Zn
   Zn   1.0     0.619517     0.793298     0.793288  Biso 1.000000    Zn
   Zn   1.0     0.793336     0.619581     0.793292  Biso 1.000000    Zn
   Zn   1.0     0.793761     0.793620     0.793620  Biso 1.000000    Zn
   Zn   1.0     0.793333     0.793301     0.619568  Biso 1.000000    Zn
