#======================================================================

# CRYSTAL DATA

#----------------------------------------------------------------------

data_VESTA_phase_1


_pd_phase_name                         MOF
_cell_length_a                         20.83200
_cell_length_b                         13.21600
_cell_length_c                         19.30800
_cell_angle_alpha                      87.16700
_cell_angle_beta                       78.25500
_cell_angle_gamma                      76.79000
_symmetry_space_group_name_H-M         "P 1"
_symmetry_Int_Tables_number            1

loop_
_symmetry_equiv_pos_as_xyz
   "x, y, z"

loop_
   _atom_site_label
   _atom_site_occupancy
   _atom_site_fract_x
   _atom_site_fract_y
   _atom_site_fract_z
   _atom_site_adp_type
   _atom_site_B_iso_or_equiv
   _atom_site_type_symbol
    H   1.0     0.504429     0.188577     0.779702  Biso 1.000000     H
    H   1.0     0.000000     0.188577     0.779702  Biso 1.000000     H
    H   1.0     0.177454     0.068122     0.669813  Biso 1.000000     H
    H   1.0     0.677450     0.068122     0.669813  Biso 1.000000     H
    H   1.0     0.043172     0.618656     0.729132  Biso 1.000000     H
    H   1.0     0.543168     0.618656     0.729132  Biso 1.000000     H
    H   1.0    -0.009846     0.672424     0.864134  Biso 1.000000     H
    H   1.0     0.490150     0.672424     0.864134  Biso 1.000000     H
    H   1.0     0.446094     0.512100     0.933780  Biso 1.000000     H
    H   1.0     0.946090     0.512100     0.933780  Biso 1.000000     H
    H   1.0     0.352474     0.409561     0.911259  Biso 1.000000     H
    H   1.0     0.852470     0.409561     0.911259  Biso 1.000000     H
    H   1.0     0.351850     0.169649     0.072609  Biso 1.000000     H
    H   1.0     0.851846     0.169649     0.072609  Biso 1.000000     H
    H   1.0     0.463596     0.076645     0.000000  Biso 1.000000     H
    H   1.0     0.963592     0.076645     0.000000  Biso 1.000000     H
    H   1.0     0.021749     0.146987     0.901200  Biso 1.000000     H
    H   1.0     0.521745     0.146987     0.901200  Biso 1.000000     H
    H   1.0     0.163662     0.318712     0.630294  Biso 1.000000     H
    H   1.0     0.663658     0.318712     0.630294  Biso 1.000000     H
    H   1.0     0.218522     0.378672     0.514082  Biso 1.000000     H
    H   1.0     0.718518     0.378672     0.514082  Biso 1.000000     H
    H   1.0     0.154771     0.525253     0.450430  Biso 1.000000     H
    H   1.0     0.654767     0.525252     0.450430  Biso 1.000000     H
    H   1.0     0.482963     0.550864     0.622620  Biso 1.000000     H
    H   1.0     0.982959     0.550864     0.622620  Biso 1.000000     H
    H   1.0     0.288458     0.205538     0.381245  Biso 1.000000     H
    H   1.0     0.788454     0.205538     0.381245  Biso 1.000000     H
    H   1.0     0.396692     0.238482     0.421838  Biso 1.000000     H
    H   1.0     0.896688     0.238482     0.421838  Biso 1.000000     H
    H   1.0     0.387906     0.201406     0.560043  Biso 1.000000     H
    H   1.0     0.887902     0.201406     0.560043  Biso 1.000000     H
    H   1.0     0.274211     0.950923     0.699788  Biso 1.000000     H
    H   1.0     0.774207     0.950923     0.699788  Biso 1.000000     H
    H   1.0     0.381797     0.050605     0.843144  Biso 1.000000     H
    H   1.0     0.881793     0.050605     0.843144  Biso 1.000000     H
    H   1.0     0.371058     0.223611     0.781856  Biso 1.000000     H
    H   1.0     0.871054     0.223611     0.781857  Biso 1.000000     H
    H   1.0     0.317654     0.256825     0.678829  Biso 1.000000     H
    H   1.0     0.817650     0.256825     0.678828  Biso 1.000000     H
    H   1.0     0.175393     0.292084     0.405091  Biso 1.000000     H
    H   1.0     0.675388     0.292084     0.405091  Biso 1.000000     H
    H   1.0     0.102830     0.307863     0.317921  Biso 1.000000     H
    H   1.0     0.602826     0.307863     0.317921  Biso 1.000000     H
    H   1.0     0.032342     0.178025     0.316352  Biso 1.000000     H
    H   1.0     0.532338     0.178025     0.316352  Biso 1.000000     H
    H   1.0     0.111566     0.015895     0.491321  Biso 1.000000     H
    H   1.0     0.611562     0.015895     0.491321  Biso 1.000000     H
    H   1.0    -0.004428     0.811437     0.220312  Biso 1.000000     H
    H   1.0     0.495568     0.811438     0.220312  Biso 1.000000     H
    H   1.0     0.322547     0.931892     0.330201  Biso 1.000000     H
    H   1.0     0.822542     0.931892     0.330200  Biso 1.000000     H
    H   1.0     0.456829     0.381359     0.270882  Biso 1.000000     H
    H   1.0     0.956825     0.381359     0.270882  Biso 1.000000     H
    H   1.0     0.509847     0.327591     0.135879  Biso 1.000000     H
    H   1.0     0.000000     0.327591     0.135879  Biso 1.000000     H
    H   1.0     0.053907     0.487915     0.066234  Biso 1.000000     H
    H   1.0     0.553903     0.487915     0.066234  Biso 1.000000     H
    H   1.0     0.147527     0.590454     0.088755  Biso 1.000000     H
    H   1.0     0.647522     0.590454     0.088755  Biso 1.000000     H
    H   1.0     0.148151     0.830366     0.927405  Biso 1.000000     H
    H   1.0     0.648147     0.830365     0.927405  Biso 1.000000     H
    H   1.0     0.036405     0.923370    -0.011444  Biso 1.000000     H
    H   1.0     0.536401     0.923370    -0.011444  Biso 1.000000     H
    H   1.0     0.478252     0.853028     0.098814  Biso 1.000000     H
    H   1.0     0.978248     0.853028     0.098814  Biso 1.000000     H
    H   1.0     0.336339     0.681302     0.369720  Biso 1.000000     H
    H   1.0     0.836335     0.681302     0.369720  Biso 1.000000     H
    H   1.0     0.281479     0.621342     0.485932  Biso 1.000000     H
    H   1.0     0.781474     0.621342     0.485932  Biso 1.000000     H
    H   1.0     0.345229     0.474762     0.549583  Biso 1.000000     H
    H   1.0     0.845225     0.474762     0.549584  Biso 1.000000     H
    H   1.0     0.017038     0.449151     0.377394  Biso 1.000000     H
    H   1.0     0.517033     0.449151     0.377394  Biso 1.000000     H
    H   1.0     0.211543     0.794477     0.618769  Biso 1.000000     H
    H   1.0     0.711539     0.794477     0.618769  Biso 1.000000     H
    H   1.0     0.103309     0.761533     0.578176  Biso 1.000000     H
    H   1.0     0.603305     0.761533     0.578176  Biso 1.000000     H
    H   1.0     0.112095     0.798609     0.439971  Biso 1.000000     H
    H   1.0     0.612090     0.798609     0.439971  Biso 1.000000     H
    H   1.0     0.225790     0.049092     0.300226  Biso 1.000000     H
    H   1.0     0.725786     0.049092     0.300226  Biso 1.000000     H
    H   1.0     0.118203     0.949409     0.156870  Biso 1.000000     H
    H   1.0     0.618199     0.949409     0.156870  Biso 1.000000     H
    H   1.0     0.128943     0.776404     0.218157  Biso 1.000000     H
    H   1.0     0.628939     0.776404     0.218157  Biso 1.000000     H
    H   1.0     0.182347     0.743189     0.321185  Biso 1.000000     H
    H   1.0     0.682343     0.743189     0.321185  Biso 1.000000     H
    H   1.0     0.324608     0.707931     0.594923  Biso 1.000000     H
    H   1.0     0.824604     0.707931     0.594923  Biso 1.000000     H
    H   1.0     0.397171     0.692152     0.682093  Biso 1.000000     H
    H   1.0     0.897167     0.692152     0.682093  Biso 1.000000     H
    H   1.0     0.467659     0.821989     0.683662  Biso 1.000000     H
    H   1.0     0.967655     0.821989     0.683662  Biso 1.000000     H
    H   1.0     0.388435     0.984120     0.508693  Biso 1.000000     H
    H   1.0     0.888431     0.984120     0.508693  Biso 1.000000     H
    C   1.0     0.014335     0.468438     0.760893  Biso 1.000000     C
    C   1.0     0.514331     0.468438     0.760893  Biso 1.000000     C
    C   1.0     0.019230     0.571038     0.769043  Biso 1.000000     C
    C   1.0     0.519225     0.571038     0.769043  Biso 1.000000     C
    C   1.0     0.488956     0.600484     0.839936  Biso 1.000000     C
    C   1.0     0.988952     0.600484     0.839936  Biso 1.000000     C
    C   1.0     0.463262     0.517349     0.876908  Biso 1.000000     C
    C   1.0     0.963258     0.517349     0.876908  Biso 1.000000     C
    C   1.0     0.480049     0.433432     0.828242  Biso 1.000000     C
    C   1.0     0.980045     0.433432     0.828242  Biso 1.000000     C
    C   1.0     0.474871     0.330380     0.834307  Biso 1.000000     C
    C   1.0     0.974867     0.330380     0.834307  Biso 1.000000     C
    C   1.0     0.441443     0.284506     0.899237  Biso 1.000000     C
    C   1.0     0.941439     0.284506     0.899237  Biso 1.000000     C
    C   1.0     0.377732     0.338155     0.933793  Biso 1.000000     C
    C   1.0     0.877728     0.338155     0.933793  Biso 1.000000     C
    C   1.0     0.345704     0.296605     0.996163  Biso 1.000000     C
    C   1.0     0.845700     0.296604     0.996163  Biso 1.000000     C
    C   1.0     0.280922     0.349283     0.032035  Biso 1.000000     C
    C   1.0     0.780918     0.349283     0.032035  Biso 1.000000     C
    C   1.0     0.376584     0.201707     0.024165  Biso 1.000000     C
    C   1.0     0.876580     0.201707     0.024165  Biso 1.000000     C
    C   1.0     0.439700     0.149339     0.989166  Biso 1.000000     C
    C   1.0     0.939696     0.149339     0.989166  Biso 1.000000     C
    C   1.0     0.472160     0.189710     0.927110  Biso 1.000000     C
    C   1.0     0.972156     0.189710     0.927110  Biso 1.000000     C
    C   1.0     0.037431     0.397538     0.704198  Biso 1.000000     C
    C   1.0     0.537427     0.397538     0.704198  Biso 1.000000     C
    C   1.0     0.069891     0.430585     0.633775  Biso 1.000000     C
    C   1.0     0.569887     0.430585     0.633775  Biso 1.000000     C
    C   1.0     0.135958     0.382140     0.602472  Biso 1.000000     C
    C   1.0     0.635954     0.382140     0.602472  Biso 1.000000     C
    C   1.0     0.166951     0.416587     0.537382  Biso 1.000000     C
    C   1.0     0.666947     0.416587     0.537382  Biso 1.000000     C
    C   1.0     0.132201     0.498611     0.501973  Biso 1.000000     C
    C   1.0     0.632197     0.498611     0.501973  Biso 1.000000     C
    C   1.0     0.065725     0.547267     0.533234  Biso 1.000000     C
    C   1.0     0.565721     0.547267     0.533234  Biso 1.000000     C
    C   1.0     0.029914     0.630856     0.497069  Biso 1.000000     C
    C   1.0     0.529910     0.630856     0.497069  Biso 1.000000     C
    C   1.0     0.034613     0.513892     0.599185  Biso 1.000000     C
    C   1.0     0.534609     0.513892     0.599185  Biso 1.000000     C
    C   1.0     0.190846     0.144453     0.508378  Biso 1.000000     C
    C   1.0     0.690842     0.144453     0.508378  Biso 1.000000     C
    C   1.0     0.254766     0.168360     0.495018  Biso 1.000000     C
    C   1.0     0.754762     0.168361     0.495018  Biso 1.000000     C
    C   1.0     0.297126     0.197766     0.434973  Biso 1.000000     C
    C   1.0     0.797122     0.197766     0.434973  Biso 1.000000     C
    C   1.0     0.354771     0.214673     0.456822  Biso 1.000000     C
    C   1.0     0.854767     0.214673     0.456822  Biso 1.000000     C
    C   1.0     0.350487     0.195566     0.529686  Biso 1.000000     C
    C   1.0     0.850483     0.195566     0.529686  Biso 1.000000     C
    C   1.0     0.289048     0.165428     0.555102  Biso 1.000000     C
    C   1.0     0.789045     0.165428     0.555103  Biso 1.000000     C
    C   1.0     0.260357     0.126255     0.619206  Biso 1.000000     C
    C   1.0     0.760353     0.126255     0.619207  Biso 1.000000     C
    C   1.0     0.291907     0.106323     0.681906  Biso 1.000000     C
    C   1.0     0.791903     0.106322     0.681906  Biso 1.000000     C
    C   1.0     0.295200     0.010959     0.717391  Biso 1.000000     C
    C   1.0     0.795195     0.010959     0.717391  Biso 1.000000     C
    C   1.0     0.327534     0.991351     0.775403  Biso 1.000000     C
    C   1.0     0.827530     0.991351     0.775403  Biso 1.000000     C
    C   1.0     0.332726     0.892291     0.808762  Biso 1.000000     C
    C   1.0     0.832722     0.892291     0.808763  Biso 1.000000     C
    C   1.0     0.356066     0.067068     0.798744  Biso 1.000000     C
    C   1.0     0.856062     0.067068     0.798744  Biso 1.000000     C
    C   1.0     0.351414     0.162301     0.763795  Biso 1.000000     C
    C   1.0     0.851410     0.162301     0.763794  Biso 1.000000     C
    C   1.0     0.320283     0.181839     0.705501  Biso 1.000000     C
    C   1.0     0.820278     0.181839     0.705501  Biso 1.000000     C
    C   1.0     0.148435     0.153094     0.454475  Biso 1.000000     C
    C   1.0     0.648430     0.153096     0.454476  Biso 1.000000     C
    C   1.0     0.145634     0.234404     0.404756  Biso 1.000000     C
    C   1.0     0.645631     0.234403     0.404755  Biso 1.000000     C
    C   1.0     0.103592     0.244097     0.355854  Biso 1.000000     C
    C   1.0     0.603587     0.244098     0.355855  Biso 1.000000     C
    C   1.0     0.064373     0.172284     0.354991  Biso 1.000000     C
    C   1.0     0.564369     0.172283     0.354990  Biso 1.000000     C
    C   1.0     0.067671     0.089566     0.403939  Biso 1.000000     C
    C   1.0     0.567666     0.089566     0.403940  Biso 1.000000     C
    C   1.0     0.031390     0.011892     0.399684  Biso 1.000000     C
    C   1.0     0.531386     0.011892     0.399684  Biso 1.000000     C
    C   1.0     0.109123     0.080234     0.453883  Biso 1.000000     C
    C   1.0     0.609120     0.080233     0.453882  Biso 1.000000     C
    C   1.0     0.258822     0.480420     0.275377  Biso 1.000000     C
    C   1.0     0.758818     0.480420     0.275377  Biso 1.000000     C
    C   1.0     0.485665     0.531576     0.239121  Biso 1.000000     C
    C   1.0     0.985661     0.531576     0.239121  Biso 1.000000     C
    C   1.0     0.480771     0.428977     0.230971  Biso 1.000000     C
    C   1.0     0.980767     0.428977     0.230971  Biso 1.000000     C
    C   1.0     0.011045     0.399530     0.160078  Biso 1.000000     C
    C   1.0     0.511040     0.399530     0.160078  Biso 1.000000     C
    C   1.0     0.036739     0.482666     0.123106  Biso 1.000000     C
    C   1.0     0.536734     0.482666     0.123106  Biso 1.000000     C
    C   1.0     0.019952     0.566582     0.171772  Biso 1.000000     C
    C   1.0     0.519948     0.566582     0.171772  Biso 1.000000     C
    C   1.0     0.025130     0.669634     0.165707  Biso 1.000000     C
    C   1.0     0.525126     0.669634     0.165707  Biso 1.000000     C
    C   1.0     0.058558     0.715509     0.100777  Biso 1.000000     C
    C   1.0     0.558554     0.715509     0.100777  Biso 1.000000     C
    C   1.0     0.122268     0.661859     0.066221  Biso 1.000000     C
    C   1.0     0.622264     0.661859     0.066221  Biso 1.000000     C
    C   1.0     0.154296     0.703410     0.003851  Biso 1.000000     C
    C   1.0     0.654292     0.703410     0.003851  Biso 1.000000     C
    C   1.0     0.219079     0.650732     0.967979  Biso 1.000000     C
    C   1.0     0.719075     0.650732     0.967979  Biso 1.000000     C
    C   1.0     0.123417     0.798307     0.975848  Biso 1.000000     C
    C   1.0     0.623413     0.798307     0.975848  Biso 1.000000     C
    C   1.0     0.060300     0.850675     0.010848  Biso 1.000000     C
    C   1.0     0.560296     0.850676     0.010848  Biso 1.000000     C
    C   1.0     0.027840     0.810304     0.072904  Biso 1.000000     C
    C   1.0     0.527836     0.810304     0.072904  Biso 1.000000     C
    C   1.0     0.462570     0.602477     0.295816  Biso 1.000000     C
    C   1.0     0.962566     0.602477     0.295816  Biso 1.000000     C
    C   1.0     0.430109     0.569430     0.366239  Biso 1.000000     C
    C   1.0     0.930105     0.569430     0.366239  Biso 1.000000     C
    C   1.0     0.364043     0.617875     0.397542  Biso 1.000000     C
    C   1.0     0.864039     0.617875     0.397542  Biso 1.000000     C
    C   1.0     0.333050     0.583428     0.462632  Biso 1.000000     C
    C   1.0     0.833046     0.583428     0.462632  Biso 1.000000     C
    C   1.0     0.367799     0.501404     0.498041  Biso 1.000000     C
    C   1.0     0.867795     0.501403     0.498041  Biso 1.000000     C
    C   1.0     0.434276     0.452748     0.466780  Biso 1.000000     C
    C   1.0     0.934272     0.452748     0.466780  Biso 1.000000     C
    C   1.0     0.470087     0.369159     0.502945  Biso 1.000000     C
    C   1.0     0.970083     0.369159     0.502945  Biso 1.000000     C
    C   1.0     0.465387     0.486122     0.400829  Biso 1.000000     C
    C   1.0     0.965383     0.486122     0.400829  Biso 1.000000     C
    C   1.0     0.309155     0.855561     0.491636  Biso 1.000000     C
    C   1.0     0.809151     0.855561     0.491636  Biso 1.000000     C
    C   1.0     0.245235     0.831654     0.504996  Biso 1.000000     C
    C   1.0     0.745230     0.831654     0.504996  Biso 1.000000     C
    C   1.0     0.202875     0.802248     0.565041  Biso 1.000000     C
    C   1.0     0.702871     0.802248     0.565041  Biso 1.000000     C
    C   1.0     0.145230     0.785342     0.543192  Biso 1.000000     C
    C   1.0     0.645226     0.785342     0.543192  Biso 1.000000     C
    C   1.0     0.149514     0.804449     0.470328  Biso 1.000000     C
    C   1.0     0.649510     0.804449     0.470328  Biso 1.000000     C
    C   1.0     0.210952     0.834586     0.444911  Biso 1.000000     C
    C   1.0     0.710948     0.834586     0.444911  Biso 1.000000     C
    C   1.0     0.239644     0.873760     0.380808  Biso 1.000000     C
    C   1.0     0.739640     0.873760     0.380807  Biso 1.000000     C
    C   1.0     0.208094     0.893692     0.318108  Biso 1.000000     C
    C   1.0     0.708090     0.893692     0.318108  Biso 1.000000     C
    C   1.0     0.204801     0.989056     0.282623  Biso 1.000000     C
    C   1.0     0.704797     0.989055     0.282623  Biso 1.000000     C
    C   1.0     0.172467     0.008664     0.224610  Biso 1.000000     C
    C   1.0     0.672463     0.008664     0.224610  Biso 1.000000     C
    C   1.0     0.167275     0.107724     0.191251  Biso 1.000000     C
    C   1.0     0.667271     0.107724     0.191251  Biso 1.000000     C
    C   1.0     0.143935     0.932946     0.201270  Biso 1.000000     C
    C   1.0     0.643931     0.932946     0.201270  Biso 1.000000     C
    C   1.0     0.148587     0.837714     0.236219  Biso 1.000000     C
    C   1.0     0.648583     0.837714     0.236219  Biso 1.000000     C
    C   1.0     0.179718     0.818176     0.294513  Biso 1.000000     C
    C   1.0     0.679714     0.818176     0.294513  Biso 1.000000     C
    C   1.0     0.351565     0.846920     0.545539  Biso 1.000000     C
    C   1.0     0.851561     0.846920     0.545539  Biso 1.000000     C
    C   1.0     0.354367     0.765611     0.595258  Biso 1.000000     C
    C   1.0     0.854362     0.765611     0.595258  Biso 1.000000     C
    C   1.0     0.396409     0.755917     0.644160  Biso 1.000000     C
    C   1.0     0.896405     0.755917     0.644160  Biso 1.000000     C
    C   1.0     0.435628     0.827730     0.645023  Biso 1.000000     C
    C   1.0     0.935624     0.827730     0.645023  Biso 1.000000     C
    C   1.0     0.432330     0.910449     0.596075  Biso 1.000000     C
    C   1.0     0.932326     0.910449     0.596074  Biso 1.000000     C
    C   1.0     0.468611     0.988122     0.600330  Biso 1.000000     C
    C   1.0     0.968607     0.988123     0.600330  Biso 1.000000     C
    C   1.0     0.390878     0.919781     0.546131  Biso 1.000000     C
    C   1.0     0.890874     0.919781     0.546131  Biso 1.000000     C
    C   1.0     0.241179     0.519594     0.724637  Biso 1.000000     C
    C   1.0     0.741175     0.519594     0.724637  Biso 1.000000     C
    C   1.0     0.072231     0.855212     0.780917  Biso 1.000000     C
    C   1.0     0.572227     0.855212     0.780917  Biso 1.000000     C
    C   1.0     0.427770     0.144803     0.219097  Biso 1.000000     C
    C   1.0     0.927766     0.144803     0.219097  Biso 1.000000     C
    N   1.0     0.002609     0.268251     0.777111  Biso 1.000000     N
    N   1.0     0.502605     0.268251     0.777111  Biso 1.000000     N
    N   1.0     0.032684     0.298196     0.712179  Biso 1.000000     N
    N   1.0     0.532680     0.298196     0.712179  Biso 1.000000     N
    N   1.0     0.000942     0.699620     0.467190  Biso 1.000000     N
    N   1.0     0.500938     0.699620     0.467190  Biso 1.000000     N
    N   1.0     0.227798     0.389611     0.063519  Biso 1.000000     N
    N   1.0     0.727794     0.389611     0.063519  Biso 1.000000     N
    N   1.0     0.200011     0.101007     0.623874  Biso 1.000000     N
    N   1.0     0.700007     0.101007     0.623874  Biso 1.000000     N
    N   1.0     0.163024     0.112915     0.572407  Biso 1.000000     N
    N   1.0     0.663020     0.112916     0.572407  Biso 1.000000     N
    N   1.0     0.002684     0.947666     0.393690  Biso 1.000000     N
    N   1.0     0.502679     0.947667     0.393690  Biso 1.000000     N
    N   1.0     0.337154     0.810130     0.835114  Biso 1.000000     N
    N   1.0     0.837150     0.810130     0.835114  Biso 1.000000     N
    N   1.0    -0.002604     0.731764     0.222902  Biso 1.000000     N
    N   1.0     0.497392     0.731764     0.222902  Biso 1.000000     N
    N   1.0     0.467317     0.701819     0.287835  Biso 1.000000     N
    N   1.0     0.967313     0.701819     0.287835  Biso 1.000000     N
    N   1.0     0.499058     0.300395     0.532823  Biso 1.000000     N
    N   1.0     0.999054     0.300395     0.532823  Biso 1.000000     N
    N   1.0     0.272203     0.610404     0.936495  Biso 1.000000     N
    N   1.0     0.772199     0.610404     0.936495  Biso 1.000000     N
    N   1.0     0.299990     0.899007     0.376140  Biso 1.000000     N
    N   1.0     0.799986     0.899007     0.376140  Biso 1.000000     N
    N   1.0     0.336977     0.887099     0.427607  Biso 1.000000     N
    N   1.0     0.836973     0.887099     0.427607  Biso 1.000000     N
    N   1.0     0.497317     0.052348     0.606324  Biso 1.000000     N
    N   1.0     0.997313     0.052348     0.606324  Biso 1.000000     N
    N   1.0     0.162847     0.189884     0.164900  Biso 1.000000     N
    N   1.0     0.662842     0.189884     0.164900  Biso 1.000000     N
    O   1.0     0.170222     0.590634     0.206184  Biso 1.000000     O
    O   1.0     0.670218     0.590634     0.206184  Biso 1.000000     O
    O   1.0     0.136401     0.573328     0.336596  Biso 1.000000     O
    O   1.0     0.636397     0.573328     0.336596  Biso 1.000000     O
    O   1.0     0.150574     0.422858     0.259145  Biso 1.000000     O
    O   1.0     0.650570     0.422858     0.259145  Biso 1.000000     O
    O   1.0     0.329779     0.409381     0.793830  Biso 1.000000     O
    O   1.0     0.829775     0.409381     0.793830  Biso 1.000000     O
    O   1.0     0.363600     0.426687     0.663418  Biso 1.000000     O
    O   1.0     0.863596     0.426687     0.663418  Biso 1.000000     O
    O   1.0     0.349426     0.577157     0.740869  Biso 1.000000     O
    O   1.0     0.849422     0.577157     0.740869  Biso 1.000000     O
    O   1.0     0.091953     0.991481     0.863779  Biso 1.000000     O
    O   1.0     0.591949     0.991481     0.863779  Biso 1.000000     O
    O   1.0     0.024480     0.054914     0.771688  Biso 1.000000     O
    O   1.0     0.524476     0.054914     0.771688  Biso 1.000000     O
    O   1.0     0.147842     0.987138     0.737248  Biso 1.000000     O
    O   1.0     0.647838     0.987138     0.737248  Biso 1.000000     O
    O   1.0     0.408048     0.008534     0.136235  Biso 1.000000     O
    O   1.0     0.908044     0.008534     0.136235  Biso 1.000000     O
    O   1.0     0.475521     0.945100     0.228326  Biso 1.000000     O
    O   1.0     0.975517     0.945100     0.228326  Biso 1.000000     O
    O   1.0     0.352159     0.012876     0.262766  Biso 1.000000     O
    O   1.0     0.852154     0.012876     0.262766  Biso 1.000000     O
    F   1.0     0.283390     0.564137     0.286103  Biso 1.000000     F
    F   1.0     0.783386     0.564137     0.286103  Biso 1.000000     F
    F   1.0     0.266550     0.413722     0.330792  Biso 1.000000     F
    F   1.0     0.766546     0.413722     0.330792  Biso 1.000000     F
    F   1.0     0.297086     0.431333     0.216169  Biso 1.000000     F
    F   1.0     0.797082     0.431333     0.216169  Biso 1.000000     F
    F   1.0     0.216611     0.435878     0.713911  Biso 1.000000     F
    F   1.0     0.716607     0.435878     0.713911  Biso 1.000000     F
    F   1.0     0.233451     0.586293     0.669222  Biso 1.000000     F
    F   1.0     0.733446     0.586293     0.669222  Biso 1.000000     F
    F   1.0     0.202915     0.568681     0.783845  Biso 1.000000     F
    F   1.0     0.702911     0.568681     0.783845  Biso 1.000000     F
    F   1.0     0.069491     0.835626     0.713305  Biso 1.000000     F
    F   1.0     0.569487     0.835626     0.713305  Biso 1.000000     F
    F   1.0     0.013214     0.844435     0.822760  Biso 1.000000     F
    F   1.0     0.513210     0.844435     0.822760  Biso 1.000000     F
    F   1.0     0.122407     0.782058     0.800100  Biso 1.000000     F
    F   1.0     0.622403     0.782058     0.800100  Biso 1.000000     F
    F   1.0     0.430510     0.164388     0.286709  Biso 1.000000     F
    F   1.0     0.930506     0.164388     0.286709  Biso 1.000000     F
    F   1.0     0.486786     0.155579     0.177254  Biso 1.000000     F
    F   1.0     0.986782     0.155579     0.177254  Biso 1.000000     F
    F   1.0     0.377594     0.217956     0.199914  Biso 1.000000     F
    F   1.0     0.877590     0.217956     0.199914  Biso 1.000000     F
    S   1.0     0.168881     0.522833     0.268526  Biso 1.000000     S
    S   1.0     0.668877     0.522833     0.268526  Biso 1.000000     S
    S   1.0     0.331120     0.477182     0.731488  Biso 1.000000     S
    S   1.0     0.831116     0.477182     0.731488  Biso 1.000000     S
    S   1.0     0.085832     0.987179     0.789892  Biso 1.000000     S
    S   1.0     0.585828     0.987179     0.789892  Biso 1.000000     S
    S   1.0     0.414169     0.012835     0.210122  Biso 1.000000     S
    S   1.0     0.914165     0.012835     0.210122  Biso 1.000000     S
   Ag   1.0     0.041443     0.189404     0.616958  Biso 1.000000    Ag
   Ag   1.0     0.541439     0.189404     0.616958  Biso 1.000000    Ag
   Ag   1.0     0.138142     0.363575     0.146127  Biso 1.000000    Ag
   Ag   1.0     0.638138     0.363575     0.146127  Biso 1.000000    Ag
   Ag   1.0     0.458558     0.810610     0.383056  Biso 1.000000    Ag
   Ag   1.0     0.958554     0.810610     0.383056  Biso 1.000000    Ag
   Ag   1.0     0.361859     0.636440     0.853886  Biso 1.000000    Ag
   Ag   1.0     0.861855     0.636440     0.853886  Biso 1.000000    Ag
