#======================================================================

# CRYSTAL DATA

#----------------------------------------------------------------------

data_VESTA_phase_1


_pd_phase_name                         MOF
_cell_length_a                         19.09700
_cell_length_b                         12.48600
_cell_length_c                         15.53600
_cell_angle_alpha                      89.96900
_cell_angle_beta                       90.20100
_cell_angle_gamma                      96.20800
_symmetry_space_group_name_H-M         "P 1"
_symmetry_Int_Tables_number            1

loop_
_symmetry_equiv_pos_as_xyz
   "x, y, z"

loop_
   _atom_site_label
   _atom_site_occupancy
   _atom_site_fract_x
   _atom_site_fract_y
   _atom_site_fract_z
   _atom_site_adp_type
   _atom_site_B_iso_or_equiv
   _atom_site_type_symbol
    H   1.0     0.471899     0.093150     0.935142  Biso 1.000000     H
    H   1.0     0.971905     0.093148     0.935140  Biso 1.000000     H
    H   1.0     0.037254     0.324112     0.737864  Biso 1.000000     H
    H   1.0     0.537260     0.324110     0.737863  Biso 1.000000     H
    H   1.0     0.319588     0.273772     0.814882  Biso 1.000000     H
    H   1.0     0.819594     0.273773     0.814884  Biso 1.000000     H
    H   1.0     0.277452     0.405252     0.436042  Biso 1.000000     H
    H   1.0     0.777457     0.405242     0.436050  Biso 1.000000     H
    H   1.0     0.211597     0.175652     0.237593  Biso 1.000000     H
    H   1.0     0.711602     0.175647     0.237598  Biso 1.000000     H
    H   1.0     0.429864     0.228026     0.313684  Biso 1.000000     H
    H   1.0     0.929869     0.228017     0.313690  Biso 1.000000     H
    H   1.0     0.028115     0.906884     0.064873  Biso 1.000000     H
    H   1.0     0.528121     0.906885     0.064873  Biso 1.000000     H
    H   1.0     0.462758     0.676003     0.262207  Biso 1.000000     H
    H   1.0     0.962765     0.676005     0.262209  Biso 1.000000     H
    H   1.0     0.180400     0.726150     0.185058  Biso 1.000000     H
    H   1.0     0.680406     0.726149     0.185058  Biso 1.000000     H
    H   1.0     0.222560     0.594818     0.563936  Biso 1.000000     H
    H   1.0     0.722567     0.594817     0.563936  Biso 1.000000     H
    H   1.0     0.288374     0.824293     0.762486  Biso 1.000000     H
    H   1.0     0.788380     0.824292     0.762487  Biso 1.000000     H
    H   1.0     0.070123     0.771972     0.686318  Biso 1.000000     H
    H   1.0     0.570129     0.771970     0.686319  Biso 1.000000     H
    H   1.0     0.004839     0.706064     0.954625  Biso 1.000000     H
    H   1.0     0.504853     0.706065     0.954625  Biso 1.000000     H
    H   1.0     0.509002     0.622663     0.860915  Biso 1.000000     H
    H   1.0     0.000000     0.622665     0.860915  Biso 1.000000     H
    H   1.0     0.425708     0.638477     0.908970  Biso 1.000000     H
    H   1.0     0.925708     0.638480     0.908964  Biso 1.000000     H
    H   1.0     0.374651     0.817328     0.886186  Biso 1.000000     H
    H   1.0     0.874655     0.817335     0.886180  Biso 1.000000     H
    H   1.0     0.429642     0.922935     0.834030  Biso 1.000000     H
    H   1.0     0.929650     0.922942     0.834030  Biso 1.000000     H
    H   1.0     0.451011     0.879553     0.939952  Biso 1.000000     H
    H   1.0     0.951013     0.879555     0.939952  Biso 1.000000     H
    H   1.0     0.445550     0.745330     0.781500  Biso 1.000000     H
    H   1.0     0.945555     0.745335     0.781499  Biso 1.000000     H
    H   1.0     0.522259     0.811923     0.824125  Biso 1.000000     H
    H   1.0     0.000000     0.811925     0.824126  Biso 1.000000     H
    H   1.0     0.245147     0.791472     0.452445  Biso 1.000000     H
    H   1.0     0.745154     0.791463     0.452444  Biso 1.000000     H
    H   1.0     0.240213     0.874699     0.358619  Biso 1.000000     H
    H   1.0     0.740223     0.874694     0.358620  Biso 1.000000     H
    H   1.0     0.323783     0.860438     0.407291  Biso 1.000000     H
    H   1.0     0.823792     0.860428     0.407292  Biso 1.000000     H
    H   1.0     0.376311     0.682914     0.385154  Biso 1.000000     H
    H   1.0     0.876317     0.682903     0.385152  Biso 1.000000     H
    H   1.0     0.322122     0.576321     0.332655  Biso 1.000000     H
    H   1.0     0.822128     0.576314     0.332649  Biso 1.000000     H
    H   1.0     0.300377     0.619320     0.438350  Biso 1.000000     H
    H   1.0     0.800382     0.619309     0.438345  Biso 1.000000     H
    H   1.0     0.304759     0.753409     0.279853  Biso 1.000000     H
    H   1.0     0.804767     0.753405     0.279852  Biso 1.000000     H
    H   1.0     0.228500     0.685306     0.321818  Biso 1.000000     H
    H   1.0     0.728507     0.685302     0.321816  Biso 1.000000     H
    H   1.0     0.495239     0.293988     0.045572  Biso 1.000000     H
    H   1.0     0.995247     0.293980     0.045570  Biso 1.000000     H
    H   1.0    -0.008961     0.377208     0.139374  Biso 1.000000     H
    H   1.0     0.491043     0.377211     0.139378  Biso 1.000000     H
    H   1.0     0.074359     0.361462     0.091369  Biso 1.000000     H
    H   1.0     0.574363     0.361470     0.091372  Biso 1.000000     H
    H   1.0     0.125359     0.182501     0.113970  Biso 1.000000     H
    H   1.0     0.625366     0.182510     0.113969  Biso 1.000000     H
    H   1.0     0.070309     0.076840     0.165978  Biso 1.000000     H
    H   1.0     0.570317     0.076846     0.165973  Biso 1.000000     H
    H   1.0     0.049012     0.120423     0.060091  Biso 1.000000     H
    H   1.0     0.549020     0.120431     0.060088  Biso 1.000000     H
    H   1.0     0.054449     0.254418     0.218668  Biso 1.000000     H
    H   1.0     0.554455     0.254420     0.218669  Biso 1.000000     H
    H   1.0    -0.022269     0.187917     0.175970  Biso 1.000000     H
    H   1.0     0.477737     0.187918     0.175969  Biso 1.000000     H
    H   1.0     0.254433     0.208686     0.547331  Biso 1.000000     H
    H   1.0     0.754447     0.208688     0.547337  Biso 1.000000     H
    H   1.0     0.259449     0.125336     0.641075  Biso 1.000000     H
    H   1.0     0.759460     0.125341     0.641082  Biso 1.000000     H
    H   1.0     0.175819     0.139900     0.592678  Biso 1.000000     H
    H   1.0     0.675832     0.139899     0.592680  Biso 1.000000     H
    H   1.0     0.123601     0.317650     0.615076  Biso 1.000000     H
    H   1.0     0.623609     0.317646     0.615073  Biso 1.000000     H
    H   1.0     0.178034     0.424029     0.667510  Biso 1.000000     H
    H   1.0     0.678037     0.424027     0.667509  Biso 1.000000     H
    H   1.0     0.199522     0.381021     0.561723  Biso 1.000000     H
    H   1.0     0.699530     0.381021     0.561724  Biso 1.000000     H
    H   1.0     0.195183     0.246745     0.720117  Biso 1.000000     H
    H   1.0     0.695189     0.246746     0.720119  Biso 1.000000     H
    H   1.0     0.271456     0.314688     0.678069  Biso 1.000000     H
    H   1.0     0.771463     0.314693     0.678074  Biso 1.000000     H
    C   1.0     0.389840     0.177578     0.880345  Biso 1.000000     C
    C   1.0     0.889846     0.177579     0.880345  Biso 1.000000     C
    C   1.0     0.459563     0.154256     0.889317  Biso 1.000000     C
    C   1.0     0.959568     0.154254     0.889316  Biso 1.000000     C
    C   1.0     0.013019     0.206771     0.838473  Biso 1.000000     C
    C   1.0     0.513025     0.206771     0.838472  Biso 1.000000     C
    C   1.0    -0.003760     0.283756     0.778477  Biso 1.000000     C
    C   1.0     0.496246     0.283757     0.778477  Biso 1.000000     C
    C   1.0     0.426781     0.308711     0.769379  Biso 1.000000     C
    C   1.0     0.926789     0.308714     0.769381  Biso 1.000000     C
    C   1.0     0.373821     0.255437     0.820724  Biso 1.000000     C
    C   1.0     0.873828     0.255438     0.820723  Biso 1.000000     C
    C   1.0     0.332562     0.115088     0.931246  Biso 1.000000     C
    C   1.0     0.832568     0.115085     0.931242  Biso 1.000000     C
    C   1.0     0.087049     0.176299     0.845631  Biso 1.000000     C
    C   1.0     0.587056     0.176303     0.845633  Biso 1.000000     C
    C   1.0     0.408704     0.388620     0.702680  Biso 1.000000     C
    C   1.0     0.908710     0.388618     0.702678  Biso 1.000000     C
    C   1.0     0.359570     0.322335     0.380358  Biso 1.000000     C
    C   1.0     0.859573     0.322326     0.380368  Biso 1.000000     C
    C   1.0     0.289745     0.344762     0.389804  Biso 1.000000     C
    C   1.0     0.789748     0.344751     0.389811  Biso 1.000000     C
    C   1.0     0.236101     0.292310     0.338772  Biso 1.000000     C
    C   1.0     0.736105     0.292297     0.338777  Biso 1.000000     C
    C   1.0     0.252773     0.216092     0.278260  Biso 1.000000     C
    C   1.0     0.752780     0.216079     0.278266  Biso 1.000000     C
    C   1.0     0.322351     0.192156     0.268603  Biso 1.000000     C
    C   1.0     0.822359     0.192148     0.268610  Biso 1.000000     C
    C   1.0     0.375520     0.245494     0.320022  Biso 1.000000     C
    C   1.0     0.875525     0.245485     0.320033  Biso 1.000000     C
    C   1.0     0.417045     0.384799     0.431445  Biso 1.000000     C
    C   1.0     0.917050     0.384791     0.431453  Biso 1.000000     C
    C   1.0     0.162001     0.322296     0.346072  Biso 1.000000     C
    C   1.0     0.662006     0.322288     0.346078  Biso 1.000000     C
    C   1.0     0.340304     0.113278     0.201263  Biso 1.000000     C
    C   1.0     0.840309     0.113270     0.201270  Biso 1.000000     C
    C   1.0     0.110170     0.822428     0.119663  Biso 1.000000     C
    C   1.0     0.610176     0.822428     0.119663  Biso 1.000000     C
    C   1.0     0.040453     0.845781     0.110699  Biso 1.000000     C
    C   1.0     0.540459     0.845781     0.110698  Biso 1.000000     C
    C   1.0     0.486997     0.793311     0.161567  Biso 1.000000     C
    C   1.0     0.987003     0.793310     0.161568  Biso 1.000000     C
    C   1.0     0.503765     0.716319     0.221563  Biso 1.000000     C
    C   1.0     0.000000     0.716320     0.221565  Biso 1.000000     C
    C   1.0     0.073215     0.691316     0.230638  Biso 1.000000     C
    C   1.0     0.573221     0.691316     0.230637  Biso 1.000000     C
    C   1.0     0.126174     0.744535     0.179262  Biso 1.000000     C
    C   1.0     0.626180     0.744535     0.179262  Biso 1.000000     C
    C   1.0     0.167444     0.884902     0.068747  Biso 1.000000     C
    C   1.0     0.667450     0.884902     0.068747  Biso 1.000000     C
    C   1.0     0.412957     0.823732     0.154391  Biso 1.000000     C
    C   1.0     0.912964     0.823733     0.154392  Biso 1.000000     C
    C   1.0     0.091294     0.611368     0.297303  Biso 1.000000     C
    C   1.0     0.591300     0.611367     0.297302  Biso 1.000000     C
    C   1.0     0.140431     0.677702     0.619623  Biso 1.000000     C
    C   1.0     0.640436     0.677702     0.619625  Biso 1.000000     C
    C   1.0     0.210258     0.655276     0.610195  Biso 1.000000     C
    C   1.0     0.710263     0.655275     0.610196  Biso 1.000000     C
    C   1.0     0.263892     0.707685     0.661267  Biso 1.000000     C
    C   1.0     0.763898     0.707681     0.661267  Biso 1.000000     C
    C   1.0     0.247207     0.783871     0.721798  Biso 1.000000     C
    C   1.0     0.747213     0.783868     0.721799  Biso 1.000000     C
    C   1.0     0.177627     0.807816     0.731430  Biso 1.000000     C
    C   1.0     0.677634     0.807815     0.731432  Biso 1.000000     C
    C   1.0     0.124468     0.754508     0.679981  Biso 1.000000     C
    C   1.0     0.624475     0.754507     0.679984  Biso 1.000000     C
    C   1.0     0.082966     0.615273     0.568494  Biso 1.000000     C
    C   1.0     0.582973     0.615274     0.568494  Biso 1.000000     C
    C   1.0     0.337991     0.677679     0.653976  Biso 1.000000     C
    C   1.0     0.837997     0.677678     0.653976  Biso 1.000000     C
    C   1.0     0.159664     0.886697     0.798761  Biso 1.000000     C
    C   1.0     0.659670     0.886694     0.798763  Biso 1.000000     C
    C   1.0     0.478265     0.678656     0.894713  Biso 1.000000     C
    C   1.0     0.978266     0.678658     0.894711  Biso 1.000000     C
    C   1.0     0.428907     0.853767     0.877395  Biso 1.000000     C
    C   1.0     0.928911     0.853772     0.877393  Biso 1.000000     C
    C   1.0     0.271460     0.819356     0.392691  Biso 1.000000     C
    C   1.0     0.771468     0.819349     0.392691  Biso 1.000000     C
    C   1.0     0.322298     0.645417     0.375948  Biso 1.000000     C
    C   1.0     0.822304     0.645408     0.375944  Biso 1.000000     C
    C   1.0     0.021788     0.321269     0.105532  Biso 1.000000     C
    C   1.0     0.521793     0.321274     0.105535  Biso 1.000000     C
    C   1.0     0.071089     0.146088     0.122689  Biso 1.000000     C
    C   1.0     0.571096     0.146096     0.122687  Biso 1.000000     C
    C   1.0     0.228213     0.180819     0.607146  Biso 1.000000     C
    C   1.0     0.728225     0.180821     0.607151  Biso 1.000000     C
    C   1.0     0.177673     0.354952     0.624167  Biso 1.000000     C
    C   1.0     0.677680     0.354950     0.624167  Biso 1.000000     C
    N   1.0     0.471255     0.773077     0.838386  Biso 1.000000     N
    N   1.0     0.971259     0.773081     0.838386  Biso 1.000000     N
    N   1.0     0.279225     0.725186     0.336507  Biso 1.000000     N
    N   1.0     0.779232     0.725180     0.336505  Biso 1.000000     N
    N   1.0     0.028750     0.226743     0.161759  Biso 1.000000     N
    N   1.0     0.528755     0.226748     0.161761  Biso 1.000000     N
    N   1.0     0.220677     0.274973     0.663438  Biso 1.000000     N
    N   1.0     0.720685     0.274974     0.663442  Biso 1.000000     N
    O   1.0     0.271568     0.147790     0.929457  Biso 1.000000     O
    O   1.0     0.771575     0.147792     0.929459  Biso 1.000000     O
    O   1.0     0.349621     0.032466     0.970929  Biso 1.000000     O
    O   1.0     0.849628     0.032468     0.970930  Biso 1.000000     O
    O   1.0     0.100188     0.125366     0.915104  Biso 1.000000     O
    O   1.0     0.600194     0.125363     0.915104  Biso 1.000000     O
    O   1.0     0.129608     0.199332     0.785516  Biso 1.000000     O
    O   1.0     0.629613     0.199328     0.785515  Biso 1.000000     O
    O   1.0     0.461081     0.449051     0.670155  Biso 1.000000     O
    O   1.0     0.961086     0.449053     0.670157  Biso 1.000000     O
    O   1.0     0.345540     0.393747     0.680807  Biso 1.000000     O
    O   1.0     0.845545     0.393752     0.680811  Biso 1.000000     O
    O   1.0     0.478112     0.352451     0.429444  Biso 1.000000     O
    O   1.0     0.978118     0.352451     0.429441  Biso 1.000000     O
    O   1.0     0.400017     0.467091     0.471431  Biso 1.000000     O
    O   1.0     0.900024     0.467091     0.471430  Biso 1.000000     O
    O   1.0     0.148732     0.371539     0.416164  Biso 1.000000     O
    O   1.0     0.648739     0.371543     0.416164  Biso 1.000000     O
    O   1.0     0.119518     0.300752     0.285290  Biso 1.000000     O
    O   1.0     0.619527     0.300757     0.285290  Biso 1.000000     O
    O   1.0     0.288186     0.050899     0.169899  Biso 1.000000     O
    O   1.0     0.788190     0.050900     0.169897  Biso 1.000000     O
    O   1.0     0.403170     0.110719     0.177655  Biso 1.000000     O
    O   1.0     0.903173     0.110722     0.177653  Biso 1.000000     O
    O   1.0     0.228438     0.852200     0.070540  Biso 1.000000     O
    O   1.0     0.728444     0.852200     0.070540  Biso 1.000000     O
    O   1.0     0.150387     0.967526     0.029067  Biso 1.000000     O
    O   1.0     0.650393     0.967526     0.029066  Biso 1.000000     O
    O   1.0     0.399820     0.874656     0.084912  Biso 1.000000     O
    O   1.0     0.899827     0.874657     0.084913  Biso 1.000000     O
    O   1.0     0.370397     0.800693     0.214503  Biso 1.000000     O
    O   1.0     0.870404     0.800694     0.214504  Biso 1.000000     O
    O   1.0     0.038917     0.550936     0.329819  Biso 1.000000     O
    O   1.0     0.538922     0.550935     0.329818  Biso 1.000000     O
    O   1.0     0.154461     0.606206     0.319151  Biso 1.000000     O
    O   1.0     0.654467     0.606205     0.319150  Biso 1.000000     O
    O   1.0     0.021882     0.647548     0.570562  Biso 1.000000     O
    O   1.0     0.521889     0.647548     0.570561  Biso 1.000000     O
    O   1.0     0.100030     0.533079     0.528405  Biso 1.000000     O
    O   1.0     0.600038     0.533085     0.528398  Biso 1.000000     O
    O   1.0     0.351243     0.628399     0.583895  Biso 1.000000     O
    O   1.0     0.851251     0.628404     0.583892  Biso 1.000000     O
    O   1.0     0.380488     0.699250     0.714739  Biso 1.000000     O
    O   1.0     0.880495     0.699252     0.714738  Biso 1.000000     O
    O   1.0     0.211781     0.949093     0.830107  Biso 1.000000     O
    O   1.0     0.711787     0.949094     0.830106  Biso 1.000000     O
    O   1.0     0.096796     0.889254     0.822362  Biso 1.000000     O
    O   1.0     0.596802     0.889255     0.822361  Biso 1.000000     O
   Zn   1.0     0.183362     0.045968     0.921914  Biso 1.000000    Zn
   Zn   1.0     0.683369     0.045968     0.921914  Biso 1.000000    Zn
   Zn   1.0     0.066628     0.453598     0.421839  Biso 1.000000    Zn
   Zn   1.0     0.566633     0.453598     0.421838  Biso 1.000000    Zn
   Zn   1.0     0.316639     0.954038     0.078088  Biso 1.000000    Zn
   Zn   1.0     0.816645     0.954039     0.078088  Biso 1.000000    Zn
   Zn   1.0     0.433364     0.546396     0.578142  Biso 1.000000    Zn
   Zn   1.0     0.933370     0.546396     0.578141  Biso 1.000000    Zn
