#======================================================================

# CRYSTAL DATA

#----------------------------------------------------------------------

data_VESTA_phase_1


_pd_phase_name                         MOF
_cell_length_a                         15.68900
_cell_length_b                         15.70700
_cell_length_c                         18.57900
_cell_angle_alpha                      89.81100
_cell_angle_beta                       90.13000
_cell_angle_gamma                      89.57900
_symmetry_space_group_name_H-M         "P 1"
_symmetry_Int_Tables_number            1

loop_
_symmetry_equiv_pos_as_xyz
   "x, y, z"

loop_
   _atom_site_label
   _atom_site_occupancy
   _atom_site_fract_x
   _atom_site_fract_y
   _atom_site_fract_z
   _atom_site_adp_type
   _atom_site_B_iso_or_equiv
   _atom_site_type_symbol
    H   1.0     0.711205     0.685728     0.659899  Biso 1.000000     H
    H   1.0     0.950179     0.609932     0.577762  Biso 1.000000     H
    H   1.0     0.858592     0.466558     0.616103  Biso 1.000000     H
    H   1.0     0.822761     0.954019     0.487499  Biso 1.000000     H
    H   1.0     0.923615     0.708684     0.449938  Biso 1.000000     H
    H   1.0     0.915095     0.797674     0.320593  Biso 1.000000     H
    H   1.0     0.009132     0.937938     0.584899  Biso 1.000000     H
    H   1.0     0.949294     0.767559     0.752682  Biso 1.000000     H
    H   1.0     0.080029     0.873999     0.797302  Biso 1.000000     H
    H   1.0     0.822728     0.926744     0.726261  Biso 1.000000     H
    H   1.0     0.559728     0.914101     0.680502  Biso 1.000000     H
    H   1.0     0.649494     0.823533     0.577059  Biso 1.000000     H
    H   1.0     0.288378     0.813782     0.161845  Biso 1.000000     H
    H   1.0     0.050448     0.890915     0.077098  Biso 1.000000     H
    H   1.0     0.141688     0.033659     0.117091  Biso 1.000000     H
    H   1.0     0.179098     0.546935     0.989724  Biso 1.000000     H
    H   1.0     0.076154     0.791026     0.948681  Biso 1.000000     H
    H   1.0     0.087354     0.701576     0.820226  Biso 1.000000     H
    H   1.0     0.990378     0.561922     0.084798  Biso 1.000000     H
    H   1.0     0.050279     0.731680     0.252298  Biso 1.000000     H
    H   1.0     0.919114     0.625551     0.296558  Biso 1.000000     H
    H   1.0     0.177948     0.573174     0.226904  Biso 1.000000     H
    H   1.0     0.440663     0.586674     0.181116  Biso 1.000000     H
    H   1.0     0.350056     0.677335     0.077353  Biso 1.000000     H
    H   1.0     0.209323     0.317367     0.841344  Biso 1.000000     H
    H   1.0     0.450223     0.387798     0.921505  Biso 1.000000     H
    H   1.0     0.360168     0.533082     0.881690  Biso 1.000000     H
    H   1.0     0.318438     0.045452     0.011729  Biso 1.000000     H
    H   1.0     0.422908     0.287203     0.052114  Biso 1.000000     H
    H   1.0     0.412818     0.196874     0.180554  Biso 1.000000     H
    H   1.0     0.509238     0.061797     0.915674  Biso 1.000000     H
    H   1.0     0.447107     0.234407     0.749206  Biso 1.000000     H
    H   1.0     0.582278     0.131380     0.705557  Biso 1.000000     H
    H   1.0     0.318815     0.074311     0.774896  Biso 1.000000     H
    H   1.0     0.056354     0.091064     0.821763  Biso 1.000000     H
    H   1.0     0.147462     0.180312     0.924818  Biso 1.000000     H
    H   1.0     0.791540     0.182268     0.339681  Biso 1.000000     H
    H   1.0     0.552860     0.107465     0.421179  Biso 1.000000     H
    H   1.0     0.644068     0.964004     0.379752  Biso 1.000000     H
    H   1.0     0.682371     0.451907     0.509482  Biso 1.000000     H
    H   1.0     0.578161     0.210644     0.553313  Biso 1.000000     H
    H   1.0     0.587078     0.303264     0.680180  Biso 1.000000     H
    H   1.0     0.491789     0.435257     0.417074  Biso 1.000000     H
    H   1.0     0.551673     0.265872     0.248885  Biso 1.000000     H
    H   1.0     0.417126     0.370917     0.206231  Biso 1.000000     H
    H   1.0     0.680299     0.424196     0.274706  Biso 1.000000     H
    H   1.0     0.943141     0.408046     0.321301  Biso 1.000000     H
    H   1.0     0.853141     0.317372     0.424274  Biso 1.000000     H
    H   1.0     0.288578     0.314262     0.339871  Biso 1.000000     H
    H   1.0     0.050063     0.390365     0.422747  Biso 1.000000     H
    H   1.0     0.141678     0.533618     0.384137  Biso 1.000000     H
    H   1.0     0.177127     0.046214     0.512532  Biso 1.000000     H
    H   1.0     0.076114     0.291426     0.550358  Biso 1.000000     H
    H   1.0     0.084887     0.202320     0.679634  Biso 1.000000     H
    H   1.0     0.990845     0.062133     0.415174  Biso 1.000000     H
    H   1.0     0.050953     0.232273     0.247284  Biso 1.000000     H
    H   1.0     0.920139     0.125924     0.202694  Biso 1.000000     H
    H   1.0     0.177846     0.072868     0.274787  Biso 1.000000     H
    H   1.0     0.440699     0.086522     0.320890  Biso 1.000000     H
    H   1.0     0.350428     0.177478     0.423830  Biso 1.000000     H
    H   1.0     0.711690     0.186249     0.839323  Biso 1.000000     H
    H   1.0     0.950280     0.109823     0.923194  Biso 1.000000     H
    H   1.0     0.859045     0.966776     0.883938  Biso 1.000000     H
    H   1.0     0.821851     0.454177     0.011598  Biso 1.000000     H
    H   1.0     0.923223     0.209182     0.051517  Biso 1.000000     H
    H   1.0     0.913289     0.298099     0.180273  Biso 1.000000     H
    H   1.0     0.010325     0.438056     0.916721  Biso 1.000000     H
    H   1.0     0.950541     0.269390     0.748404  Biso 1.000000     H
    H   1.0     0.082642     0.374879     0.705116  Biso 1.000000     H
    H   1.0     0.822284     0.426863     0.773201  Biso 1.000000     H
    H   1.0     0.559551     0.413540     0.818958  Biso 1.000000     H
    H   1.0     0.650108     0.323149     0.922918  Biso 1.000000     H
    H   1.0     0.791482     0.682894     0.160090  Biso 1.000000     H
    H   1.0     0.551408     0.610821     0.079209  Biso 1.000000     H
    H   1.0     0.642011     0.466214     0.119793  Biso 1.000000     H
    H   1.0     0.681765     0.953394     0.989423  Biso 1.000000     H
    H   1.0     0.577029     0.712036     0.947880  Biso 1.000000     H
    H   1.0     0.587324     0.803197     0.819836  Biso 1.000000     H
    H   1.0     0.490687     0.937922     0.085036  Biso 1.000000     H
    H   1.0     0.553278     0.764841     0.251042  Biso 1.000000     H
    H   1.0     0.418530     0.868048     0.295298  Biso 1.000000     H
    H   1.0     0.681252     0.925533     0.225180  Biso 1.000000     H
    H   1.0     0.943698     0.908957     0.178204  Biso 1.000000     H
    H   1.0     0.852602     0.819511     0.075271  Biso 1.000000     H
    H   1.0     0.208250     0.817682     0.660273  Biso 1.000000     H
    H   1.0     0.447183     0.892178     0.579092  Biso 1.000000     H
    H   1.0     0.356043     0.035764     0.620324  Biso 1.000000     H
    H   1.0     0.317581     0.547831     0.490562  Biso 1.000000     H
    H   1.0     0.421524     0.789266     0.446946  Biso 1.000000     H
    H   1.0     0.412923     0.696708     0.320028  Biso 1.000000     H
    H   1.0     0.508314     0.564697     0.582939  Biso 1.000000     H
    H   1.0     0.448579     0.734239     0.751048  Biso 1.000000     H
    H   1.0     0.583023     0.629080     0.793759  Biso 1.000000     H
    H   1.0     0.320985     0.575868     0.726075  Biso 1.000000     H
    H   1.0     0.057775     0.590693     0.680674  Biso 1.000000     H
    H   1.0     0.146676     0.681384     0.577073  Biso 1.000000     H
    C   1.0     0.763903     0.645594     0.642760  Biso 1.000000     C
    C   1.0     0.886830     0.604682     0.600523  Biso 1.000000     C
    C   1.0     0.841446     0.533439     0.619664  Biso 1.000000     C
    C   1.0     0.850458     0.899754     0.459817  Biso 1.000000     C
    C   1.0     0.902529     0.773309     0.438763  Biso 1.000000     C
    C   1.0     0.898402     0.817322     0.374691  Biso 1.000000     C
    C   1.0     0.010702     0.905921     0.636739  Biso 1.000000     C
    C   1.0     0.981166     0.818780     0.724448  Biso 1.000000     C
    C   1.0     0.045715     0.871550     0.746605  Biso 1.000000     C
    C   1.0     0.763222     0.911176     0.699679  Biso 1.000000     C
    C   1.0     0.627773     0.903500     0.674698  Biso 1.000000     C
    C   1.0     0.672338     0.858594     0.623380  Biso 1.000000     C
    C   1.0     0.235889     0.854200     0.144301  Biso 1.000000     C
    C   1.0     0.113499     0.895785     0.100725  Biso 1.000000     C
    C   1.0     0.158744     0.966727     0.120667  Biso 1.000000     C
    C   1.0     0.151259     0.600803     0.961185  Biso 1.000000     C
    C   1.0     0.098125     0.726599     0.938344  Biso 1.000000     C
    C   1.0     0.103562     0.682368     0.874712  Biso 1.000000     C
    C   1.0     0.988764     0.593789     0.136519  Biso 1.000000     C
    C   1.0     0.018331     0.680623     0.224072  Biso 1.000000     C
    C   1.0     0.953548     0.627999     0.246037  Biso 1.000000     C
    C   1.0     0.237262     0.588984     0.200259  Biso 1.000000     C
    C   1.0     0.372563     0.597117     0.175267  Biso 1.000000     C
    C   1.0     0.327590     0.642050     0.123793  Biso 1.000000     C
    C   1.0     0.262714     0.356311     0.857814  Biso 1.000000     C
    C   1.0     0.386680     0.394481     0.898972  Biso 1.000000     C
    C   1.0     0.342050     0.466647     0.879073  Biso 1.000000     C
    C   1.0     0.346778     0.098553     0.040090  Biso 1.000000     C
    C   1.0     0.400695     0.223122     0.062570  Biso 1.000000     C
    C   1.0     0.395840     0.178401     0.126209  Biso 1.000000     C
    C   1.0     0.510737     0.094836     0.864309  Biso 1.000000     C
    C   1.0     0.480034     0.183153     0.777284  Biso 1.000000     C
    C   1.0     0.546894     0.132138     0.755648  Biso 1.000000     C
    C   1.0     0.259625     0.090832     0.801717  Biso 1.000000     C
    C   1.0     0.124455     0.100627     0.827303  Biso 1.000000     C
    C   1.0     0.169659     0.144836     0.878411  Biso 1.000000     C
    C   1.0     0.738903     0.142367     0.356254  Biso 1.000000     C
    C   1.0     0.616077     0.101965     0.398075  Biso 1.000000     C
    C   1.0     0.661303     0.030703     0.377414  Biso 1.000000     C
    C   1.0     0.653962     0.399247     0.538564  Biso 1.000000     C
    C   1.0     0.600155     0.274951     0.562804  Biso 1.000000     C
    C   1.0     0.604425     0.320797     0.625664  Biso 1.000000     C
    C   1.0     0.489699     0.403354     0.365388  Biso 1.000000     C
    C   1.0     0.519276     0.316727     0.277492  Biso 1.000000     C
    C   1.0     0.452741     0.368758     0.256331  Biso 1.000000     C
    C   1.0     0.739735     0.407623     0.301438  Biso 1.000000     C
    C   1.0     0.875117     0.398148     0.326882  Biso 1.000000     C
    C   1.0     0.830444     0.353209     0.377946  Biso 1.000000     C
    C   1.0     0.235991     0.354457     0.357150  Biso 1.000000     C
    C   1.0     0.113303     0.395530     0.399760  Biso 1.000000     C
    C   1.0     0.158713     0.466715     0.380511  Biso 1.000000     C
    C   1.0     0.149404     0.100423     0.540277  Biso 1.000000     C
    C   1.0     0.097257     0.226804     0.561466  Biso 1.000000     C
    C   1.0     0.101516     0.182735     0.625505  Biso 1.000000     C
    C   1.0     0.989339     0.094094     0.363309  Biso 1.000000     C
    C   1.0     0.019021     0.181111     0.275546  Biso 1.000000     C
    C   1.0     0.954425     0.128388     0.253404  Biso 1.000000     C
    C   1.0     0.237230     0.088745     0.301430  Biso 1.000000     C
    C   1.0     0.372622     0.096963     0.326595  Biso 1.000000     C
    C   1.0     0.327804     0.142051     0.377635  Biso 1.000000     C
    C   1.0     0.764329     0.145982     0.856796  Biso 1.000000     C
    C   1.0     0.887080     0.104756     0.899894  Biso 1.000000     C
    C   1.0     0.841830     0.033667     0.880343  Biso 1.000000     C
    C   1.0     0.849451     0.399993     0.039871  Biso 1.000000     C
    C   1.0     0.901772     0.273722     0.062123  Biso 1.000000     C
    C   1.0     0.896967     0.317710     0.125912  Biso 1.000000     C
    C   1.0     0.012115     0.406390     0.864917  Biso 1.000000     C
    C   1.0     0.982596     0.320129     0.776954  Biso 1.000000     C
    C   1.0     0.047876     0.372422     0.755476  Biso 1.000000     C
    C   1.0     0.762956     0.411120     0.799851  Biso 1.000000     C
    C   1.0     0.627647     0.403088     0.824834  Biso 1.000000     C
    C   1.0     0.672594     0.358282     0.876402  Biso 1.000000     C
    C   1.0     0.738360     0.643602     0.143595  Biso 1.000000     C
    C   1.0     0.614844     0.604603     0.102049  Biso 1.000000     C
    C   1.0     0.659755     0.532759     0.122335  Biso 1.000000     C
    C   1.0     0.653376     0.900513     0.960803  Biso 1.000000     C
    C   1.0     0.599324     0.776149     0.937718  Biso 1.000000     C
    C   1.0     0.604267     0.821267     0.874286  Biso 1.000000     C
    C   1.0     0.489374     0.904782     0.136361  Biso 1.000000     C
    C   1.0     0.520321     0.816218     0.223154  Biso 1.000000     C
    C   1.0     0.453682     0.867335     0.245092  Biso 1.000000     C
    C   1.0     0.740441     0.909042     0.198346  Biso 1.000000     C
    C   1.0     0.875602     0.899330     0.172705  Biso 1.000000     C
    C   1.0     0.830398     0.855036     0.121650  Biso 1.000000     C
    C   1.0     0.260952     0.857522     0.643739  Biso 1.000000     C
    C   1.0     0.383910     0.897768     0.602076  Biso 1.000000     C
    C   1.0     0.338726     0.969088     0.622656  Biso 1.000000     C
    C   1.0     0.345943     0.600555     0.461531  Biso 1.000000     C
    C   1.0     0.399623     0.724938     0.437399  Biso 1.000000     C
    C   1.0     0.395509     0.679123     0.374517  Biso 1.000000     C
    C   1.0     0.510436     0.596639     0.634608  Biso 1.000000     C
    C   1.0     0.480941     0.683344     0.722463  Biso 1.000000     C
    C   1.0     0.547410     0.631247     0.743659  Biso 1.000000     C
    C   1.0     0.261287     0.592109     0.699621  Biso 1.000000     C
    C   1.0     0.125723     0.600878     0.674795  Biso 1.000000     C
    C   1.0     0.169853     0.645823     0.623389  Biso 1.000000     C
    N   1.0     0.763332     0.559824     0.646444  Biso 1.000000     N
    N   1.0     0.837276     0.675844     0.615318  Biso 1.000000     N
    N   1.0     0.865401     0.897615     0.388381  Biso 1.000000     N
    N   1.0     0.872023     0.825908     0.492739  Biso 1.000000     N
    N   1.0     0.064162     0.926915     0.690686  Biso 1.000000     N
    N   1.0     0.959228     0.840831     0.654528  Biso 1.000000     N
    N   1.0     0.685914     0.937001     0.722990  Biso 1.000000     N
    N   1.0     0.758460     0.863616     0.639475  Biso 1.000000     N
    N   1.0     0.236526     0.939930     0.148328  Biso 1.000000     N
    N   1.0     0.162771     0.824359     0.115891  Biso 1.000000     N
    N   1.0     0.137240     0.602499     0.889557  Biso 1.000000     N
    N   1.0     0.128472     0.674552     0.993162  Biso 1.000000     N
    N   1.0     0.935046     0.572818     0.190226  Biso 1.000000     N
    N   1.0     0.040419     0.658692     0.154365  Biso 1.000000     N
    N   1.0     0.314768     0.563343     0.223668  Biso 1.000000     N
    N   1.0     0.241579     0.636727     0.139909  Biso 1.000000     N
    N   1.0     0.263278     0.441993     0.852962  Biso 1.000000     N
    N   1.0     0.335950     0.324510     0.885363  Biso 1.000000     N
    N   1.0     0.361609     0.099282     0.111642  Biso 1.000000     N
    N   1.0     0.369461     0.172191     0.007937  Biso 1.000000     N
    N   1.0     0.566103     0.076036     0.811140  Biso 1.000000     N
    N   1.0     0.457349     0.159230     0.846441  Biso 1.000000     N
    N   1.0     0.182023     0.066247     0.778802  Biso 1.000000     N
    N   1.0     0.255550     0.138426     0.861897  Biso 1.000000     N
    N   1.0     0.739337     0.056770     0.350882  Biso 1.000000     N
    N   1.0     0.665693     0.172809     0.384536  Biso 1.000000     N
    N   1.0     0.638543     0.399752     0.609976  Biso 1.000000     N
    N   1.0     0.631701     0.324984     0.507552  Biso 1.000000     N
    N   1.0     0.434259     0.423817     0.312359  Biso 1.000000     N
    N   1.0     0.542517     0.338937     0.346885  Biso 1.000000     N
    N   1.0     0.817079     0.432811     0.278490  Biso 1.000000     N
    N   1.0     0.744399     0.359430     0.361543  Biso 1.000000     N
    N   1.0     0.236675     0.440225     0.353493  Biso 1.000000     N
    N   1.0     0.162680     0.324301     0.384788  Biso 1.000000     N
    N   1.0     0.134565     0.102482     0.611729  Biso 1.000000     N
    N   1.0     0.127725     0.174281     0.507427  Biso 1.000000     N
    N   1.0     0.935886     0.073102     0.309356  Biso 1.000000     N
    N   1.0     0.040901     0.159107     0.345489  Biso 1.000000     N
    N   1.0     0.314670     0.063010     0.278388  Biso 1.000000     N
    N   1.0     0.241745     0.136675     0.361408  Biso 1.000000     N
    N   1.0     0.763818     0.060233     0.852997  Biso 1.000000     N
    N   1.0     0.837580     0.176045     0.884790  Biso 1.000000     N
    N   1.0     0.863804     0.397905     0.111480  Biso 1.000000     N
    N   1.0     0.871534     0.326207     0.007548  Biso 1.000000     N
    N   1.0     0.066361     0.427244     0.811548  Biso 1.000000     N
    N   1.0     0.960145     0.341895     0.846619  Biso 1.000000     N
    N   1.0     0.685459     0.436712     0.776374  Biso 1.000000     N
    N   1.0     0.758611     0.363527     0.860288  Biso 1.000000     N
    N   1.0     0.738254     0.557920     0.148698  Biso 1.000000     N
    N   1.0     0.665099     0.674932     0.115646  Biso 1.000000     N
    N   1.0     0.638573     0.900235     0.889270  Biso 1.000000     N
    N   1.0     0.630584     0.826715     0.992572  Biso 1.000000     N
    N   1.0     0.434304     0.923604     0.189761  Biso 1.000000     N
    N   1.0     0.542728     0.840226     0.153953  Biso 1.000000     N
    N   1.0     0.818038     0.933717     0.221208  Biso 1.000000     N
    N   1.0     0.744509     0.861403     0.138194  Biso 1.000000     N
    N   1.0     0.260607     0.943124     0.649085  Biso 1.000000     N
    N   1.0     0.334179     0.826991     0.615559  Biso 1.000000     N
    N   1.0     0.361475     0.600115     0.390136  Biso 1.000000     N
    N   1.0     0.368060     0.674828     0.492597  Biso 1.000000     N
    N   1.0     0.565834     0.576131     0.687657  Biso 1.000000     N
    N   1.0     0.457690     0.661126     0.653075  Biso 1.000000     N
    N   1.0     0.184218     0.566627     0.723019  Biso 1.000000     N
    N   1.0     0.256039     0.640039     0.639372  Biso 1.000000     N
   Zn   1.0     0.858778     0.799795     0.597342  Biso 1.000000    Zn
   Zn   1.0     0.662945     0.492513     0.681174  Biso 1.000000    Zn
   Zn   1.0     0.140988     0.700499     0.097676  Biso 1.000000    Zn
   Zn   1.0     0.336951     0.007134     0.183837  Biso 1.000000    Zn
   Zn   1.0     0.356168     0.200165     0.903350  Biso 1.000000    Zn
   Zn   1.0     0.162766     0.510692     0.818117  Biso 1.000000    Zn
   Zn   1.0     0.644223     0.296540     0.403186  Biso 1.000000    Zn
   Zn   1.0     0.840455     0.989209     0.315737  Biso 1.000000    Zn
   Zn   1.0     0.141107     0.200376     0.402837  Biso 1.000000    Zn
   Zn   1.0     0.337145     0.507456     0.318831  Biso 1.000000    Zn
   Zn   1.0     0.859149     0.299947     0.902844  Biso 1.000000    Zn
   Zn   1.0     0.663435     0.992765     0.817959  Biso 1.000000    Zn
   Zn   1.0     0.643965     0.799200     0.097022  Biso 1.000000    Zn
   Zn   1.0     0.838946     0.489264     0.183988  Biso 1.000000    Zn
   Zn   1.0     0.355699     0.703281     0.596955  Biso 1.000000    Zn
   Zn   1.0     0.159583     0.010796     0.684263  Biso 1.000000    Zn
