#======================================================================

# CRYSTAL DATA

#----------------------------------------------------------------------

data_VESTA_phase_1


_pd_phase_name                         MOF
_cell_length_a                         22.84900
_cell_length_b                         18.23800
_cell_length_c                         13.49400
_cell_angle_alpha                      87.83200
_cell_angle_beta                       114.86500
_cell_angle_gamma                      97.23500
_symmetry_space_group_name_H-M         "P 1"
_symmetry_Int_Tables_number            1

loop_
_symmetry_equiv_pos_as_xyz
   "x, y, z"

loop_
   _atom_site_label
   _atom_site_occupancy
   _atom_site_fract_x
   _atom_site_fract_y
   _atom_site_fract_z
   _atom_site_adp_type
   _atom_site_B_iso_or_equiv
   _atom_site_type_symbol
    H   1.0     0.297861     0.425708    -0.092096  Biso 1.000000     H
    H   1.0     0.297720     0.926413    -0.093154  Biso 1.000000     H
    H   1.0     0.797875     0.425680    -0.091999  Biso 1.000000     H
    H   1.0     0.797729     0.926444    -0.093153  Biso 1.000000     H
    H   1.0     0.058933     0.140970     0.579167  Biso 1.000000     H
    H   1.0     0.057178     0.639352     0.575310  Biso 1.000000     H
    H   1.0     0.558789     0.140924     0.579096  Biso 1.000000     H
    H   1.0     0.557250     0.639362     0.575325  Biso 1.000000     H
    H   1.0     0.163313     0.325653     0.390306  Biso 1.000000     H
    H   1.0     0.163909     0.827574     0.386034  Biso 1.000000     H
    H   1.0     0.663272     0.325624     0.390363  Biso 1.000000     H
    H   1.0     0.663842     0.827514     0.386095  Biso 1.000000     H
    H   1.0     0.463221     0.320833     0.613762  Biso 1.000000     H
    H   1.0     0.461682     0.819276     0.609988  Biso 1.000000     H
    H   1.0     0.963288     0.320824     0.613772  Biso 1.000000     H
    H   1.0     0.961516     0.819198     0.609897  Biso 1.000000     H
    H   1.0     0.263738     0.135672     0.421266  Biso 1.000000     H
    H   1.0     0.264361     0.637624     0.416954  Biso 1.000000     H
    H   1.0     0.763690     0.135640     0.421299  Biso 1.000000     H
    H   1.0     0.764326     0.637591     0.417014  Biso 1.000000     H
    H   1.0     0.308660     0.119489     0.000000  Biso 1.000000     H
    H   1.0     0.308212     0.620281     0.000000  Biso 1.000000     H
    H   1.0     0.808673     0.119523     0.000000  Biso 1.000000     H
    H   1.0     0.808228     0.620250     0.000000  Biso 1.000000     H
    H   1.0     0.202354     0.073565     0.000000  Biso 1.000000     H
    H   1.0     0.202201     0.574334     0.000000  Biso 1.000000     H
    H   1.0     0.702366     0.073601     0.000000  Biso 1.000000     H
    H   1.0     0.702215     0.574304     0.000000  Biso 1.000000     H
    H   1.0     0.442798     0.360624     0.424740  Biso 1.000000     H
    H   1.0     0.441250     0.859057     0.420970  Biso 1.000000     H
    H   1.0     0.942886     0.360626     0.424760  Biso 1.000000     H
    H   1.0     0.941111     0.858993     0.420894  Biso 1.000000     H
    H   1.0     0.336169     0.172423     0.614075  Biso 1.000000     H
    H   1.0     0.336793     0.674361     0.609752  Biso 1.000000     H
    H   1.0     0.836135     0.172393     0.614102  Biso 1.000000     H
    H   1.0     0.836744     0.674326     0.609819  Biso 1.000000     H
    H   1.0     0.038526     0.180763     0.390162  Biso 1.000000     H
    H   1.0     0.036777     0.679156     0.386301  Biso 1.000000     H
    H   1.0     0.538363     0.180706     0.390081  Biso 1.000000     H
    H   1.0     0.536822     0.679152     0.386301  Biso 1.000000     H
    H   1.0     0.235729     0.362389     0.583111  Biso 1.000000     H
    H   1.0     0.236355     0.864326     0.578838  Biso 1.000000     H
    H   1.0     0.735702     0.362363     0.583161  Biso 1.000000     H
    H   1.0     0.736275     0.864263     0.578904  Biso 1.000000     H
    H   1.0     0.191851     0.379761    -0.090266  Biso 1.000000     H
    H   1.0     0.191413     0.880490    -0.092459  Biso 1.000000     H
    H   1.0     0.691864     0.379734    -0.090174  Biso 1.000000     H
    H   1.0     0.691425     0.880521    -0.092448  Biso 1.000000     H
    C   1.0     0.373402     0.056879     0.000000  Biso 1.000000     C
    C   1.0     0.373087     0.556951     0.000000  Biso 1.000000     C
    C   1.0     0.873418     0.056902     0.000000  Biso 1.000000     C
    C   1.0     0.873097     0.556930     0.000000  Biso 1.000000     C
    C   1.0     0.023309     0.206934     0.720205  Biso 1.000000     C
    C   1.0     0.021956     0.705715     0.716661  Biso 1.000000     C
    C   1.0     0.523242     0.206933     0.720189  Biso 1.000000     C
    C   1.0     0.522061     0.705749     0.716709  Biso 1.000000     C
    C   1.0     0.164900     0.208548     0.279524  Biso 1.000000     C
    C   1.0     0.165060     0.709982     0.275635  Biso 1.000000     C
    C   1.0     0.664857     0.208526     0.279564  Biso 1.000000     C
    C   1.0     0.665032     0.709951     0.275679  Biso 1.000000     C
    C   1.0     0.012485     0.228435     0.608909  Biso 1.000000     C
    C   1.0     0.010819     0.726888     0.605117  Biso 1.000000     C
    C   1.0     0.512387     0.228420     0.608875  Biso 1.000000     C
    C   1.0     0.510935     0.726929     0.605170  Biso 1.000000     C
    C   1.0     0.208890     0.228502     0.392862  Biso 1.000000     C
    C   1.0     0.209409     0.730352     0.388646  Biso 1.000000     C
    C   1.0     0.708847     0.228473     0.392905  Biso 1.000000     C
    C   1.0     0.709361     0.730309     0.388703  Biso 1.000000     C
    C   1.0     0.277983     0.457731    -0.049494  Biso 1.000000     C
    C   1.0     0.277888     0.958110    -0.050108  Biso 1.000000     C
    C   1.0     0.777997     0.457704    -0.049398  Biso 1.000000     C
    C   1.0     0.777899     0.958141    -0.050105  Biso 1.000000     C
    C   1.0     0.033371     0.188852     0.545091  Biso 1.000000     C
    C   1.0     0.031617     0.687236     0.541240  Biso 1.000000     C
    C   1.0     0.533239     0.188815     0.545031  Biso 1.000000     C
    C   1.0     0.531704     0.687259     0.541269  Biso 1.000000     C
    C   1.0     0.201487     0.292452     0.439710  Biso 1.000000     C
    C   1.0     0.202100     0.794388     0.435424  Biso 1.000000     C
    C   1.0     0.701447     0.292422     0.439760  Biso 1.000000     C
    C   1.0     0.702037     0.794333     0.435486  Biso 1.000000     C
    C   1.0     0.479812     0.290556     0.564390  Biso 1.000000     C
    C   1.0     0.478275     0.788999     0.560620  Biso 1.000000     C
    C   1.0     0.979900     0.290562     0.564415  Biso 1.000000     C
    C   1.0     0.978135     0.788939     0.560548  Biso 1.000000     C
    C   1.0     0.311032     0.025677     0.000000  Biso 1.000000     C
    C   1.0     0.310881     0.525745     0.000000  Biso 1.000000     C
    C   1.0     0.811044     0.025708     0.000000  Biso 1.000000     C
    C   1.0     0.810895     0.525718     0.000000  Biso 1.000000     C
    C   1.0     0.257625     0.185205     0.456866  Biso 1.000000     C
    C   1.0     0.258252     0.687158     0.452558  Biso 1.000000     C
    C   1.0     0.757582     0.185175     0.456902  Biso 1.000000     C
    C   1.0     0.758207     0.687118     0.452620  Biso 1.000000     C
    C   1.0     0.282532     0.067304     0.000000  Biso 1.000000     C
    C   1.0     0.282278     0.567767     0.000000  Biso 1.000000     C
    C   1.0     0.782544     0.067338     0.000000  Biso 1.000000     C
    C   1.0     0.782293     0.567737     0.000000  Biso 1.000000     C
    C   1.0     0.126981     0.443081    -0.001539  Biso 1.000000     C
    C   1.0     0.126669     0.943106    -0.002833  Biso 1.000000     C
    C   1.0     0.626987     0.443063    -0.001465  Biso 1.000000     C
    C   1.0     0.626687     0.943131    -0.002808  Biso 1.000000     C
    C   1.0     0.478003     0.294247     0.283371  Biso 1.000000     C
    C   1.0     0.476809     0.793059     0.279883  Biso 1.000000     C
    C   1.0     0.978109     0.294266     0.283413  Biso 1.000000     C
    C   1.0     0.976759     0.793051     0.279872  Biso 1.000000     C
    C   1.0     0.335018     0.290026     0.724453  Biso 1.000000     C
    C   1.0     0.335212     0.791462     0.720551  Biso 1.000000     C
    C   1.0     0.835005     0.290008     0.724480  Biso 1.000000     C
    C   1.0     0.835155     0.791425     0.720608  Biso 1.000000     C
    C   1.0     0.489114     0.273058     0.394900  Biso 1.000000     C
    C   1.0     0.487656     0.771564     0.391191  Biso 1.000000     C
    C   1.0     0.989236     0.273084     0.394950  Biso 1.000000     C
    C   1.0     0.987572     0.771539     0.391160  Biso 1.000000     C
    C   1.0     0.290675     0.269654     0.611441  Biso 1.000000     C
    C   1.0     0.291212     0.771505     0.607218  Biso 1.000000     C
    C   1.0     0.790648     0.269627     0.611478  Biso 1.000000     C
    C   1.0     0.791150     0.771459     0.607281  Biso 1.000000     C
    C   1.0     0.222186     0.041868     0.000000  Biso 1.000000     C
    C   1.0     0.222080     0.542309     0.000000  Biso 1.000000     C
    C   1.0     0.722198     0.041903     0.000000  Biso 1.000000     C
    C   1.0     0.722094     0.542281     0.000000  Biso 1.000000     C
    C   1.0     0.468342     0.312726     0.458797  Biso 1.000000     C
    C   1.0     0.466801     0.811167     0.455035  Biso 1.000000     C
    C   1.0     0.968442     0.312738     0.458829  Biso 1.000000     C
    C   1.0     0.966677     0.811115     0.454973  Biso 1.000000     C
    C   1.0     0.297984     0.205613     0.564675  Biso 1.000000     C
    C   1.0     0.298613     0.707559     0.560359  Biso 1.000000     C
    C   1.0     0.797949     0.205584     0.564707  Biso 1.000000     C
    C   1.0     0.798561     0.707518     0.560425  Biso 1.000000     C
    C   1.0     0.021912     0.211026     0.439514  Biso 1.000000     C
    C   1.0     0.020159     0.709414     0.435655  Biso 1.000000     C
    C   1.0     0.521769     0.210983     0.439448  Biso 1.000000     C
    C   1.0     0.520230     0.709429     0.435674  Biso 1.000000     C
    C   1.0     0.189182     0.474295    -0.001360  Biso 1.000000     C
    C   1.0     0.189042     0.974302    -0.001928  Biso 1.000000     C
    C   1.0     0.689194     0.474269    -0.001271  Biso 1.000000     C
    C   1.0     0.689055     0.974334    -0.001916  Biso 1.000000     C
    C   1.0     0.241839     0.312852     0.547515  Biso 1.000000     C
    C   1.0     0.242468     0.814795     0.543230  Biso 1.000000     C
    C   1.0     0.741808     0.312824     0.547562  Biso 1.000000     C
    C   1.0     0.742398     0.814740     0.543294  Biso 1.000000     C
    C   1.0     0.217784     0.432275    -0.050446  Biso 1.000000     C
    C   1.0     0.217542     0.932675    -0.051674  Biso 1.000000     C
    C   1.0     0.717798     0.432248    -0.050353  Biso 1.000000     C
    C   1.0     0.717553     0.932706    -0.051665  Biso 1.000000     C
    N   1.0     0.158792     0.144345     0.226598  Biso 1.000000     N
    N   1.0     0.159002     0.645629     0.223090  Biso 1.000000     N
    N   1.0     0.658764     0.144337     0.226616  Biso 1.000000     N
    N   1.0     0.658979     0.645602     0.223128  Biso 1.000000     N
    N   1.0     0.420938     0.020669     0.999087  Biso 1.000000     N
    N   1.0     0.420904     0.520694     0.998886  Biso 1.000000     N
    N   1.0     0.920947     0.020681     0.999091  Biso 1.000000     N
    N   1.0     0.920911     0.520682     0.998940  Biso 1.000000     N
    N   1.0     0.043229     0.149100     0.867939  Biso 1.000000     N
    N   1.0     0.042231     0.648431     0.864928  Biso 1.000000     N
    N   1.0     0.543200     0.149111     0.867941  Biso 1.000000     N
    N   1.0     0.542287     0.648442     0.864948  Biso 1.000000     N
    N   1.0     0.012110     0.251682     0.786687  Biso 1.000000     N
    N   1.0     0.011177     0.750890     0.783152  Biso 1.000000     N
    N   1.0     0.512086     0.251698     0.786704  Biso 1.000000     N
    N   1.0     0.511283     0.750925     0.783199  Biso 1.000000     N
    N   1.0     0.110387     0.151783     0.127928  Biso 1.000000     N
    N   1.0     0.110103     0.652491     0.124778  Biso 1.000000     N
    N   1.0     0.610357     0.151779     0.127949  Biso 1.000000     N
    N   1.0     0.610099     0.652479     0.124799  Biso 1.000000     N
    N   1.0     0.024483     0.214531     0.877509  Biso 1.000000     N
    N   1.0     0.023754     0.714088     0.874293  Biso 1.000000     N
    N   1.0     0.524482     0.214554     0.877537  Biso 1.000000     N
    N   1.0     0.523829     0.714110     0.874323  Biso 1.000000     N
    N   1.0     0.468129     0.074378     0.000000  Biso 1.000000     N
    N   1.0     0.467774     0.574389     0.999216  Biso 1.000000     N
    N   1.0     0.968146     0.074382     0.000000  Biso 1.000000     N
    N   1.0     0.967776     0.574384     0.999270  Biso 1.000000     N
    N   1.0     0.448987     0.139058     0.000000  Biso 1.000000     N
    N   1.0     0.448187     0.639107     0.000000  Biso 1.000000     N
    N   1.0     0.949015     0.139067     0.000000  Biso 1.000000     N
    N   1.0     0.948190     0.639097     0.000000  Biso 1.000000     N
    N   1.0     0.088705     0.217754     0.122145  Biso 1.000000     N
    N   1.0     0.088090     0.718253     0.118827  Biso 1.000000     N
    N   1.0     0.588660     0.217738     0.122189  Biso 1.000000     N
    N   1.0     0.588094     0.718245     0.118844  Biso 1.000000     N
    N   1.0     0.390901     0.130400     0.000000  Biso 1.000000     N
    N   1.0     0.390114     0.630492     0.000000  Biso 1.000000     N
    N   1.0     0.890929     0.130421     0.000000  Biso 1.000000     N
    N   1.0     0.890122     0.630473     0.000000  Biso 1.000000     N
    N   1.0     0.042999     0.142645     0.769131  Biso 1.000000     N
    N   1.0     0.041612     0.641500     0.765915  Biso 1.000000     N
    N   1.0     0.542929     0.142641     0.769106  Biso 1.000000     N
    N   1.0     0.541687     0.641520     0.765947  Biso 1.000000     N
    N   1.0     0.122111     0.254221     0.215394  Biso 1.000000     N
    N   1.0     0.121750     0.755183     0.211619  Biso 1.000000     N
    N   1.0     0.622057     0.254194     0.215450  Biso 1.000000     N
    N   1.0     0.621738     0.755163     0.211650  Biso 1.000000     N
    N   1.0     0.341074     0.354382     0.776992  Biso 1.000000     N
    N   1.0     0.341306     0.855654     0.773493  Biso 1.000000     N
    N   1.0     0.841060     0.354361     0.777022  Biso 1.000000     N
    N   1.0     0.841265     0.855632     0.773528  Biso 1.000000     N
    N   1.0     0.079167     0.479327     0.001156  Biso 1.000000     N
    N   1.0     0.079140     0.979324     0.000998  Biso 1.000000     N
    N   1.0     0.579171     0.479318     0.001200  Biso 1.000000     N
    N   1.0     0.579149     0.979340     0.001006  Biso 1.000000     N
    N   1.0     0.457794     0.351566     0.135146  Biso 1.000000     N
    N   1.0     0.456875     0.850895     0.132147  Biso 1.000000     N
    N   1.0     0.957850     0.351567     0.135164  Biso 1.000000     N
    N   1.0     0.956858     0.850901     0.132156  Biso 1.000000     N
    N   1.0     0.488802     0.249083     0.216890  Biso 1.000000     N
    N   1.0     0.487973     0.748299     0.213372  Biso 1.000000     N
    N   1.0     0.988899     0.249102     0.216923  Biso 1.000000     N
    N   1.0     0.987969     0.748313     0.213392  Biso 1.000000     N
    N   1.0     0.389970     0.347522     0.875308  Biso 1.000000     N
    N   1.0     0.389727     0.848225     0.872148  Biso 1.000000     N
    N   1.0     0.889972     0.347512     0.875324  Biso 1.000000     N
    N   1.0     0.889692     0.848212     0.872180  Biso 1.000000     N
    N   1.0     0.476266     0.285906     0.125776  Biso 1.000000     N
    N   1.0     0.475592     0.785452     0.122549  Biso 1.000000     N
    N   1.0     0.976332     0.285914     0.125793  Biso 1.000000     N
    N   1.0     0.975607     0.785475     0.122582  Biso 1.000000     N
    N   1.0     0.032301     0.425624     0.000822  Biso 1.000000     N
    N   1.0     0.031942     0.925622    -0.000687  Biso 1.000000     N
    N   1.0     0.532299     0.425622     0.000864  Biso 1.000000     N
    N   1.0     0.531961     0.925630    -0.000662  Biso 1.000000     N
    N   1.0     0.051889     0.360912    -0.002182  Biso 1.000000     N
    N   1.0     0.051075     0.860938    -0.005524  Biso 1.000000     N
    N   1.0     0.551886     0.360905    -0.002116  Biso 1.000000     N
    N   1.0     0.551108     0.860950    -0.005472  Biso 1.000000     N
    N   1.0     0.411982     0.281759     0.881267  Biso 1.000000     N
    N   1.0     0.411432     0.782271     0.877907  Biso 1.000000     N
    N   1.0     0.911996     0.281756     0.881271  Biso 1.000000     N
    N   1.0     0.911384     0.782248     0.877958  Biso 1.000000     N
    N   1.0     0.109957     0.369538    -0.003928  Biso 1.000000     N
    N   1.0     0.109159     0.869587    -0.007184  Biso 1.000000     N
    N   1.0     0.609958     0.369521    -0.003843  Biso 1.000000     N
    N   1.0     0.609193     0.869609    -0.007130  Biso 1.000000     N
    N   1.0     0.458374     0.358476     0.234134  Biso 1.000000     N
    N   1.0     0.457132     0.857356     0.230974  Biso 1.000000     N
    N   1.0     0.958457     0.358484     0.234169  Biso 1.000000     N
    N   1.0     0.957074     0.857344     0.230956  Biso 1.000000     N
    N   1.0     0.378326     0.244827     0.788477  Biso 1.000000     N
    N   1.0     0.378026     0.745805     0.784657  Biso 1.000000     N
    N   1.0     0.878330     0.244820     0.788487  Biso 1.000000     N
    N   1.0     0.877965     0.745768     0.784724  Biso 1.000000     N
   Zn   1.0     0.061386     0.083841     0.997627  Biso 1.000000    Zn
   Zn   1.0     0.060844     0.583817     0.995386  Biso 1.000000    Zn
   Zn   1.0     0.561371     0.083847     0.997628  Biso 1.000000    Zn
   Zn   1.0     0.560855     0.583815     0.995387  Biso 1.000000    Zn
   Zn   1.0     0.439221     0.416197     0.004708  Biso 1.000000    Zn
   Zn   1.0     0.438717     0.916163     0.002463  Biso 1.000000    Zn
   Zn   1.0     0.939235     0.416192     0.004714  Biso 1.000000    Zn
   Zn   1.0     0.938703     0.916166     0.002468  Biso 1.000000    Zn
   Zn   1.0     0.000000     0.250000     0.001846  Biso 1.000000    Zn
   Zn   1.0     0.999671     0.750012     0.998241  Biso 1.000000    Zn
   Zn   1.0     0.500395     0.250000     0.001868  Biso 1.000000    Zn
   Zn   1.0     0.499693     0.750015     0.998226  Biso 1.000000    Zn
