#======================================================================

# CRYSTAL DATA

#----------------------------------------------------------------------

data_VESTA_phase_1


_pd_phase_name                         MOF
_cell_length_a                         13.38400
_cell_length_b                         14.22600
_cell_length_c                         21.11700
_cell_angle_alpha                      93.77200
_cell_angle_beta                       90.11100
_cell_angle_gamma                      89.97500
_symmetry_space_group_name_H-M         "P 1"
_symmetry_Int_Tables_number            1

loop_
_symmetry_equiv_pos_as_xyz
   "x, y, z"

loop_
   _atom_site_label
   _atom_site_occupancy
   _atom_site_fract_x
   _atom_site_fract_y
   _atom_site_fract_z
   _atom_site_adp_type
   _atom_site_B_iso_or_equiv
   _atom_site_type_symbol
    H   1.0     0.350978     0.785920     0.266774  Biso 1.000000     H
    H   1.0     0.362725     0.878918     0.077467  Biso 1.000000     H
    H   1.0     0.157745     0.658173     0.122422  Biso 1.000000     H
    H   1.0     0.000000     0.644804     0.940262  Biso 1.000000     H
    H   1.0     0.068252     0.759510     0.760748  Biso 1.000000     H
    H   1.0     0.244558     0.844566     0.925574  Biso 1.000000     H
    H   1.0     0.160216     0.409514     0.036005  Biso 1.000000     H
    H   1.0     0.187352     0.465368     0.926656  Biso 1.000000     H
    H   1.0     0.330056     0.574598     0.909151  Biso 1.000000     H
    H   1.0     0.477139     0.668233     0.956175  Biso 1.000000     H
    H   1.0     0.582191     0.715493     0.049690  Biso 1.000000     H
    H   1.0     0.621509     0.703833     0.166960  Biso 1.000000     H
    H   1.0     0.578744     0.633029     0.268332  Biso 1.000000     H
    H   1.0     0.432542     0.522231     0.271128  Biso 1.000000     H
    H   1.0     0.848913     0.715774     0.233229  Biso 1.000000     H
    H   1.0     0.862956     0.622495     0.422423  Biso 1.000000     H
    H   1.0     0.657597     0.843721     0.378164  Biso 1.000000     H
    H   1.0     0.506179     0.855774     0.559884  Biso 1.000000     H
    H   1.0     0.567467     0.738947     0.739028  Biso 1.000000     H
    H   1.0     0.745701     0.656506     0.574930  Biso 1.000000     H
    H   1.0     0.661421     0.092966     0.464395  Biso 1.000000     H
    H   1.0     0.688080     0.000000     0.573710  Biso 1.000000     H
    H   1.0     0.830008     0.926426     0.591447  Biso 1.000000     H
    H   1.0    -0.023519     0.831992     0.544710  Biso 1.000000     H
    H   1.0     0.081357     0.784347     0.451443  Biso 1.000000     H
    H   1.0     0.121092     0.796271     0.334397  Biso 1.000000     H
    H   1.0     0.078886     0.867542     0.232969  Biso 1.000000     H
    H   1.0     0.933269     0.979072     0.229843  Biso 1.000000     H
    H   1.0     0.649024     0.214098     0.733214  Biso 1.000000     H
    H   1.0     0.637279     0.121094     0.922520  Biso 1.000000     H
    H   1.0     0.842258     0.341842     0.877567  Biso 1.000000     H
    H   1.0    -0.005656     0.355208     0.059727  Biso 1.000000     H
    H   1.0     0.931750     0.240504     0.239241  Biso 1.000000     H
    H   1.0     0.755445     0.155446     0.074414  Biso 1.000000     H
    H   1.0     0.839784     0.590506     0.963984  Biso 1.000000     H
    H   1.0     0.812651     0.534653     0.073333  Biso 1.000000     H
    H   1.0     0.669950     0.425421     0.090839  Biso 1.000000     H
    H   1.0     0.522868     0.331782     0.043816  Biso 1.000000     H
    H   1.0     0.417816     0.284520     0.950302  Biso 1.000000     H
    H   1.0     0.378496     0.296179     0.833032  Biso 1.000000     H
    H   1.0     0.421258     0.366981     0.731660  Biso 1.000000     H
    H   1.0     0.567457     0.477782     0.728862  Biso 1.000000     H
    H   1.0     0.151086     0.284244     0.766761  Biso 1.000000     H
    H   1.0     0.137041     0.377521     0.577566  Biso 1.000000     H
    H   1.0     0.342400     0.156296     0.621825  Biso 1.000000     H
    H   1.0     0.493818     0.144240     0.440105  Biso 1.000000     H
    H   1.0     0.432529     0.261064     0.260961  Biso 1.000000     H
    H   1.0     0.254294     0.343506     0.425058  Biso 1.000000     H
    H   1.0     0.338577     0.907058     0.535594  Biso 1.000000     H
    H   1.0     0.311914    -0.036669     0.426280  Biso 1.000000     H
    H   1.0     0.169983     0.073597     0.408545  Biso 1.000000     H
    H   1.0     0.000000     0.168027     0.455283  Biso 1.000000     H
    H   1.0     0.918634     0.215669     0.548552  Biso 1.000000     H
    H   1.0     0.878902     0.203743     0.665597  Biso 1.000000     H
    H   1.0     0.921112     0.132471     0.767024  Biso 1.000000     H
    H   1.0     0.066732     0.020944     0.770149  Biso 1.000000     H
    C   1.0     0.212522     0.649578     0.245738  Biso 1.000000     C
    C   1.0     0.251849     0.714064     0.198562  Biso 1.000000     C
    C   1.0     0.324284     0.780453     0.217950  Biso 1.000000     C
    C   1.0     0.365624     0.838999     0.174107  Biso 1.000000     C
    C   1.0     0.330698     0.833681     0.111784  Biso 1.000000     C
    C   1.0     0.253183     0.770537     0.092306  Biso 1.000000     C
    C   1.0     0.215448     0.708713     0.136276  Biso 1.000000     C
    C   1.0     0.128075     0.742116     0.938559  Biso 1.000000     C
    C   1.0     0.048428     0.690738     0.911501  Biso 1.000000     C
    C   1.0     0.026295     0.697450     0.847331  Biso 1.000000     C
    C   1.0     0.083774     0.755928     0.811112  Biso 1.000000     C
    C   1.0     0.161060     0.810218     0.839390  Biso 1.000000     C
    C   1.0     0.184034     0.803170     0.903663  Biso 1.000000     C
    C   1.0     0.448311     0.904338     0.196415  Biso 1.000000     C
    C   1.0     0.219998     0.876047     0.800798  Biso 1.000000     C
    C   1.0     0.943403     0.639191     0.817080  Biso 1.000000     C
    C   1.0     0.222332     0.455588     0.025946  Biso 1.000000     C
    C   1.0     0.238092     0.487574     0.965174  Biso 1.000000     C
    C   1.0     0.317002     0.547783     0.955657  Biso 1.000000     C
    C   1.0     0.380851     0.575689     0.006869  Biso 1.000000     C
    C   1.0     0.462935     0.639483     0.001937  Biso 1.000000     C
    C   1.0     0.521123     0.665464     0.053427  Biso 1.000000     C
    C   1.0     0.502736     0.628786     0.113933  Biso 1.000000     C
    C   1.0     0.560182     0.653369     0.168773  Biso 1.000000     C
    C   1.0     0.536056     0.614792     0.225292  Biso 1.000000     C
    C   1.0     0.454501     0.552895     0.227259  Biso 1.000000     C
    C   1.0     0.422026     0.565561     0.120345  Biso 1.000000     C
    C   1.0     0.359886     0.539168     0.066341  Biso 1.000000     C
    C   1.0     0.711009     0.852274     0.254616  Biso 1.000000     C
    C   1.0     0.750627     0.787648     0.301704  Biso 1.000000     C
    C   1.0     0.822796     0.721233     0.282113  Biso 1.000000     C
    C   1.0     0.864783     0.662646     0.325803  Biso 1.000000     C
    C   1.0     0.830546     0.667825     0.388206  Biso 1.000000     C
    C   1.0     0.753192     0.731012     0.407929  Biso 1.000000     C
    C   1.0     0.715023     0.793034     0.364101  Biso 1.000000     C
    C   1.0     0.628922     0.758763     0.561788  Biso 1.000000     C
    C   1.0     0.548864     0.809610     0.588639  Biso 1.000000     C
    C   1.0     0.526064     0.801999     0.652572  Biso 1.000000     C
    C   1.0     0.583504     0.743299     0.688828  Biso 1.000000     C
    C   1.0     0.661365     0.689704     0.660744  Biso 1.000000     C
    C   1.0     0.684850     0.697512     0.596672  Biso 1.000000     C
    C   1.0     0.947373     0.597595     0.302909  Biso 1.000000     C
    C   1.0     0.720383     0.623595     0.699226  Biso 1.000000     C
    C   1.0     0.442266     0.859393     0.682357  Biso 1.000000     C
    C   1.0     0.723223     0.046469     0.474549  Biso 1.000000     C
    C   1.0     0.738715     0.000000     0.535307  Biso 1.000000     C
    C   1.0     0.817170     0.953462     0.544949  Biso 1.000000     C
    C   1.0     0.880843     0.925259     0.493875  Biso 1.000000     C
    C   1.0     0.962497     0.860927     0.498954  Biso 1.000000     C
    C   1.0     0.020586     0.834737     0.447596  Biso 1.000000     C
    C   1.0     0.002490     0.871680     0.387092  Biso 1.000000     C
    C   1.0     0.059939     0.846946     0.332419  Biso 1.000000     C
    C   1.0     0.036168     0.885833     0.275886  Biso 1.000000     C
    C   1.0     0.954928     0.948167     0.273744  Biso 1.000000     C
    C   1.0     0.922153     0.935397     0.380517  Biso 1.000000     C
    C   1.0     0.860144     0.962043     0.434390  Biso 1.000000     C
    C   1.0     0.787479     0.350439     0.754250  Biso 1.000000     C
    C   1.0     0.748154     0.285952     0.801427  Biso 1.000000     C
    C   1.0     0.675718     0.219563     0.782038  Biso 1.000000     C
    C   1.0     0.634378     0.161016     0.825881  Biso 1.000000     C
    C   1.0     0.669305     0.166333     0.888204  Biso 1.000000     C
    C   1.0     0.746819     0.229477     0.907682  Biso 1.000000     C
    C   1.0     0.784555     0.291301     0.863712  Biso 1.000000     C
    C   1.0     0.871926     0.257898     0.061430  Biso 1.000000     C
    C   1.0     0.951573     0.309276     0.088488  Biso 1.000000     C
    C   1.0     0.973706     0.302565     0.152658  Biso 1.000000     C
    C   1.0     0.916228     0.244086     0.188877  Biso 1.000000     C
    C   1.0     0.838942     0.189797     0.160599  Biso 1.000000     C
    C   1.0     0.815967     0.196844     0.096326  Biso 1.000000     C
    C   1.0     0.551689     0.095680     0.803572  Biso 1.000000     C
    C   1.0     0.780004     0.123967     0.199191  Biso 1.000000     C
    C   1.0     0.056598     0.360823     0.182909  Biso 1.000000     C
    C   1.0     0.777670     0.544431     0.974043  Biso 1.000000     C
    C   1.0     0.761911     0.512445     0.034815  Biso 1.000000     C
    C   1.0     0.683002     0.452236     0.044334  Biso 1.000000     C
    C   1.0     0.619155     0.424326     0.993121  Biso 1.000000     C
    C   1.0     0.537070     0.360533     0.998055  Biso 1.000000     C
    C   1.0     0.478883     0.334549     0.946565  Biso 1.000000     C
    C   1.0     0.497270     0.371226     0.886058  Biso 1.000000     C
    C   1.0     0.439821     0.346644     0.831219  Biso 1.000000     C
    C   1.0     0.463947     0.385218     0.774699  Biso 1.000000     C
    C   1.0     0.545499     0.447119     0.772731  Biso 1.000000     C
    C   1.0     0.577977     0.434454     0.879646  Biso 1.000000     C
    C   1.0     0.640118     0.460848     0.933650  Biso 1.000000     C
    C   1.0     0.288989     0.147742     0.745372  Biso 1.000000     C
    C   1.0     0.249371     0.212368     0.698285  Biso 1.000000     C
    C   1.0     0.177203     0.278784     0.717876  Biso 1.000000     C
    C   1.0     0.135216     0.337372     0.674187  Biso 1.000000     C
    C   1.0     0.169452     0.332191     0.611783  Biso 1.000000     C
    C   1.0     0.246806     0.269005     0.592060  Biso 1.000000     C
    C   1.0     0.284975     0.206983     0.635888  Biso 1.000000     C
    C   1.0     0.371076     0.241251     0.438201  Biso 1.000000     C
    C   1.0     0.451133     0.190404     0.411351  Biso 1.000000     C
    C   1.0     0.473933     0.198012     0.347417  Biso 1.000000     C
    C   1.0     0.416493     0.256713     0.311161  Biso 1.000000     C
    C   1.0     0.338631     0.310308     0.339244  Biso 1.000000     C
    C   1.0     0.315147     0.302500     0.403316  Biso 1.000000     C
    C   1.0     0.052627     0.402423     0.697080  Biso 1.000000     C
    C   1.0     0.279614     0.376419     0.300763  Biso 1.000000     C
    C   1.0     0.557728     0.140615     0.317631  Biso 1.000000     C
    C   1.0     0.276774     0.953555     0.525441  Biso 1.000000     C
    C   1.0     0.261278    -0.014224     0.464683  Biso 1.000000     C
    C   1.0     0.182823     0.046562     0.455042  Biso 1.000000     C
    C   1.0     0.119149     0.074759     0.506116  Biso 1.000000     C
    C   1.0     0.037495     0.139092     0.501039  Biso 1.000000     C
    C   1.0     0.979406     0.165280     0.552398  Biso 1.000000     C
    C   1.0     0.997503     0.128335     0.612901  Biso 1.000000     C
    C   1.0     0.940057     0.153070     0.667575  Biso 1.000000     C
    C   1.0     0.963828     0.114180     0.724107  Biso 1.000000     C
    C   1.0     0.045072     0.051850     0.726248  Biso 1.000000     C
    C   1.0     0.077844     0.064621     0.619475  Biso 1.000000     C
    C   1.0     0.139851     0.037977     0.565602  Biso 1.000000     C
    N   1.0     0.281606     0.480524     0.075204  Biso 1.000000     N
    N   1.0     0.398684     0.529117     0.176227  Biso 1.000000     N
    N   1.0     0.225261     0.777341     0.028958  Biso 1.000000     N
    N   1.0     0.150479     0.728541     0.005352  Biso 1.000000     N
    N   1.0     0.782303     0.021224     0.425391  Biso 1.000000     N
    N   1.0     0.899106     0.972135     0.324612  Biso 1.000000     N
    N   1.0     0.725650     0.723832     0.471273  Biso 1.000000     N
    N   1.0     0.651531     0.773124     0.495209  Biso 1.000000     N
    N   1.0     0.718397     0.519492     0.924786  Biso 1.000000     N
    N   1.0     0.601318     0.470896     0.823763  Biso 1.000000     N
    N   1.0     0.774740     0.222675     0.971030  Biso 1.000000     N
    N   1.0     0.849530     0.271465     0.994634  Biso 1.000000     N
    N   1.0     0.217693     0.978796     0.574599  Biso 1.000000     N
    N   1.0     0.100890     0.027880     0.675379  Biso 1.000000     N
    N   1.0     0.274348     0.276184     0.528716  Biso 1.000000     N
    N   1.0     0.348464     0.226889     0.504779  Biso 1.000000     N
    O   1.0     0.181679     0.565898     0.222341  Biso 1.000000     O
    O   1.0     0.207558     0.674089     0.302952  Biso 1.000000     O
    O   1.0     0.465314     0.917493     0.254720  Biso 1.000000     O
    O   1.0     0.501263     0.942921     0.153545  Biso 1.000000     O
    O   1.0     0.282815     0.929290     0.830776  Biso 1.000000     O
    O   1.0     0.200196     0.873074     0.741445  Biso 1.000000     O
    O   1.0     0.874650     0.612440     0.853790  Biso 1.000000     O
    O   1.0     0.949397     0.621179     0.757644  Biso 1.000000     O
    O   1.0     0.095680     0.670769     0.032765  Biso 1.000000     O
    O   1.0     0.681859     0.936407     0.277941  Biso 1.000000     O
    O   1.0     0.704305     0.827587     0.197462  Biso 1.000000     O
    O   1.0     0.962832     0.584426     0.244534  Biso 1.000000     O
    O   1.0     0.000000     0.559512     0.345519  Biso 1.000000     O
    O   1.0     0.783909     0.571303     0.669273  Biso 1.000000     O
    O   1.0     0.700025     0.625363     0.758406  Biso 1.000000     O
    O   1.0     0.374298     0.886598     0.645041  Biso 1.000000     O
    O   1.0     0.446508     0.876320     0.741974  Biso 1.000000     O
    O   1.0     0.597263     0.832013     0.468301  Biso 1.000000     O
    O   1.0     0.818323     0.434119     0.777648  Biso 1.000000     O
    O   1.0     0.792442     0.325929     0.697037  Biso 1.000000     O
    O   1.0     0.534688     0.082525     0.745267  Biso 1.000000     O
    O   1.0     0.498737     0.057097     0.846442  Biso 1.000000     O
    O   1.0     0.717183     0.070728     0.169213  Biso 1.000000     O
    O   1.0     0.799800     0.126944     0.258544  Biso 1.000000     O
    O   1.0     0.125349     0.387580     0.146199  Biso 1.000000     O
    O   1.0     0.050599     0.378841     0.242344  Biso 1.000000     O
    O   1.0     0.904313     0.329255     0.967226  Biso 1.000000     O
    O   1.0     0.318140     0.063609     0.722047  Biso 1.000000     O
    O   1.0     0.295695     0.172430     0.802526  Biso 1.000000     O
    O   1.0     0.037168     0.415592     0.755456  Biso 1.000000     O
    O   1.0    -0.001707     0.440506     0.654470  Biso 1.000000     O
    O   1.0     0.216090     0.428712     0.330715  Biso 1.000000     O
    O   1.0     0.299975     0.374654     0.241583  Biso 1.000000     O
    O   1.0     0.625689     0.113394     0.354948  Biso 1.000000     O
    O   1.0     0.553492     0.123700     0.258014  Biso 1.000000     O
    O   1.0     0.402741     0.168009     0.531691  Biso 1.000000     O
   Zn   1.0     0.254137     0.457486     0.172504  Biso 1.000000    Zn
   Zn   1.0     0.603979     0.004198     0.210753  Biso 1.000000    Zn
   Zn   1.0     0.754496     0.044310     0.327797  Biso 1.000000    Zn
   Zn   1.0     0.104052     0.497601     0.289132  Biso 1.000000    Zn
   Zn   1.0     0.745863     0.542531     0.827484  Biso 1.000000    Zn
   Zn   1.0     0.396020     0.995820     0.789236  Biso 1.000000    Zn
   Zn   1.0     0.245502     0.955705     0.672192  Biso 1.000000    Zn
   Zn   1.0     0.895947     0.502417     0.710857  Biso 1.000000    Zn
