#======================================================================

# CRYSTAL DATA

#----------------------------------------------------------------------

data_VESTA_phase_1


_pd_phase_name                         MOF
_cell_length_a                         17.80800
_cell_length_b                         12.97200
_cell_length_c                         15.65000
_cell_angle_alpha                      83.12300
_cell_angle_beta                       73.46700
_cell_angle_gamma                      69.98500
_symmetry_space_group_name_H-M         "P 1"
_symmetry_Int_Tables_number            1

loop_
_symmetry_equiv_pos_as_xyz
   "x, y, z"

loop_
   _atom_site_label
   _atom_site_occupancy
   _atom_site_fract_x
   _atom_site_fract_y
   _atom_site_fract_z
   _atom_site_adp_type
   _atom_site_B_iso_or_equiv
   _atom_site_type_symbol
    H   1.0     0.362726     0.093329     0.730254  Biso 1.000000     H
    H   1.0     0.862679     0.093577     0.730253  Biso 1.000000     H
    H   1.0     0.405225     0.236378     0.624246  Biso 1.000000     H
    H   1.0     0.905233     0.236579     0.624235  Biso 1.000000     H
    H   1.0     0.143497     0.118725     0.679409  Biso 1.000000     H
    H   1.0     0.643481     0.118651     0.679409  Biso 1.000000     H
    H   1.0     0.431369     0.588694     0.043605  Biso 1.000000     H
    H   1.0     0.931292     0.588847     0.043587  Biso 1.000000     H
    H   1.0     0.356199     0.455450     0.076052  Biso 1.000000     H
    H   1.0     0.856181     0.455534     0.076016  Biso 1.000000     H
    H   1.0     0.213583     0.645018     0.892661  Biso 1.000000     H
    H   1.0     0.713426     0.645160     0.892766  Biso 1.000000     H
    H   1.0     0.297258     0.767227     0.866128  Biso 1.000000     H
    H   1.0     0.797062     0.767419     0.866222  Biso 1.000000     H
    H   1.0     0.087468     0.738420     0.832751  Biso 1.000000     H
    H   1.0     0.587549     0.738282     0.832760  Biso 1.000000     H
    H   1.0     0.058863     0.638835     0.814756  Biso 1.000000     H
    H   1.0     0.558914     0.638739     0.814764  Biso 1.000000     H
    H   1.0     0.274196     0.406118     0.769344  Biso 1.000000     H
    H   1.0     0.774152     0.406209     0.769360  Biso 1.000000     H
    H   1.0     0.335091     0.263485     0.875535  Biso 1.000000     H
    H   1.0     0.835042     0.263571     0.875551  Biso 1.000000     H
    H   1.0     0.041570     0.382530     0.820699  Biso 1.000000     H
    H   1.0     0.541599     0.382458     0.820680  Biso 1.000000     H
    H   1.0     0.247165     0.910899     0.456219  Biso 1.000000     H
    H   1.0     0.747137     0.910948     0.456201  Biso 1.000000     H
    H   1.0     0.121912     0.044685     0.423918  Biso 1.000000     H
    H   1.0     0.621893     0.044704     0.423864  Biso 1.000000     H
    H   1.0     0.481554     0.855956     0.607482  Biso 1.000000     H
    H   1.0     0.981564     0.855945     0.607550  Biso 1.000000     H
    H   1.0     0.112800     0.733126     0.633901  Biso 1.000000     H
    H   1.0     0.612770     0.733167     0.633872  Biso 1.000000     H
    H   1.0     0.372213     0.762124     0.667137  Biso 1.000000     H
    H   1.0     0.872214     0.762131     0.667138  Biso 1.000000     H
    H   1.0     0.285120     0.861876     0.685004  Biso 1.000000     H
    H   1.0     0.785125     0.861902     0.685026  Biso 1.000000     H
    H   1.0     0.137001     0.907490     0.269610  Biso 1.000000     H
    H   1.0     0.637004     0.907451     0.269621  Biso 1.000000     H
    H   1.0     0.094309     0.764707     0.375840  Biso 1.000000     H
    H   1.0     0.594312     0.764662     0.375838  Biso 1.000000     H
    H   1.0     0.356023     0.882754     0.320748  Biso 1.000000     H
    H   1.0     0.856003     0.882793     0.320757  Biso 1.000000     H
    H   1.0     0.068562     0.411831     0.956237  Biso 1.000000     H
    H   1.0     0.568666     0.411667     0.956128  Biso 1.000000     H
    H   1.0     0.143645     0.545210     0.923842  Biso 1.000000     H
    H   1.0     0.643691     0.545111     0.923744  Biso 1.000000     H
    H   1.0     0.286120     0.355886     0.107425  Biso 1.000000     H
    H   1.0     0.786052     0.356024     0.107499  Biso 1.000000     H
    H   1.0     0.202577     0.233547     0.133878  Biso 1.000000     H
    H   1.0     0.702581     0.233595     0.133916  Biso 1.000000     H
    H   1.0     0.412423     0.262597     0.166866  Biso 1.000000     H
    H   1.0     0.912371     0.262633     0.166862  Biso 1.000000     H
    H   1.0     0.441189     0.361892     0.185041  Biso 1.000000     H
    H   1.0     0.941142     0.361920     0.185041  Biso 1.000000     H
    H   1.0     0.225507     0.594638     0.230775  Biso 1.000000     H
    H   1.0     0.725522     0.594622     0.230846  Biso 1.000000     H
    H   1.0     0.164635     0.737237     0.124523  Biso 1.000000     H
    H   1.0     0.664672     0.737213     0.124579  Biso 1.000000     H
    H   1.0     0.458228     0.618121     0.179244  Biso 1.000000     H
    H   1.0     0.958160     0.618167     0.179258  Biso 1.000000     H
    H   1.0     0.252240     0.090170     0.544087  Biso 1.000000     H
    H   1.0     0.752243     0.090167     0.544182  Biso 1.000000     H
    H   1.0     0.377477     0.956343     0.576463  Biso 1.000000     H
    H   1.0     0.877479     0.956372     0.576584  Biso 1.000000     H
    H   1.0     0.017988     0.144434     0.392356  Biso 1.000000     H
    H   1.0     0.517971     0.144482     0.392333  Biso 1.000000     H
    H   1.0     0.386788     0.267395     0.365973  Biso 1.000000     H
    H   1.0     0.886789     0.267328     0.365989  Biso 1.000000     H
    H   1.0     0.127406     0.238429     0.333213  Biso 1.000000     H
    H   1.0     0.627428     0.238413     0.333191  Biso 1.000000     H
    H   1.0     0.214566     0.138962     0.315263  Biso 1.000000     H
    H   1.0     0.714581     0.138928     0.315243  Biso 1.000000     H
    C   1.0     0.448115     0.944734     0.828072  Biso 1.000000     C
    C   1.0     0.948002     0.944937     0.828060  Biso 1.000000     C
    C   1.0     0.477317     0.029749     0.767816  Biso 1.000000     C
    C   1.0     0.977264     0.029926     0.767820  Biso 1.000000     C
    C   1.0     0.423741     0.101128     0.719952  Biso 1.000000     C
    C   1.0     0.923704     0.101338     0.719954  Biso 1.000000     C
    C   1.0     0.447435     0.180195     0.660418  Biso 1.000000     C
    C   1.0     0.947429     0.180370     0.660409  Biso 1.000000     C
    C   1.0     0.026820     0.187349     0.645372  Biso 1.000000     C
    C   1.0     0.526802     0.187208     0.645377  Biso 1.000000     C
    C   1.0     0.055420     0.268688     0.578859  Biso 1.000000     C
    C   1.0     0.555415     0.268525     0.578851  Biso 1.000000     C
    C   1.0     0.081350     0.114817     0.691517  Biso 1.000000     C
    C   1.0     0.581343     0.114710     0.691526  Biso 1.000000     C
    C   1.0     0.057390     0.037250     0.752531  Biso 1.000000     C
    C   1.0     0.557411     0.037125     0.752534  Biso 1.000000     C
    C   1.0     0.382770     0.597072     0.011441  Biso 1.000000     C
    C   1.0     0.882685     0.597210     0.011439  Biso 1.000000     C
    C   1.0     0.338858     0.523657     0.030014  Biso 1.000000     C
    C   1.0     0.838804     0.523760     0.030006  Biso 1.000000     C
    C   1.0     0.274779     0.538262     0.989486  Biso 1.000000     C
    C   1.0     0.774711     0.538352     0.989504  Biso 1.000000     C
    C   1.0     0.260556     0.627649     0.928878  Biso 1.000000     C
    C   1.0     0.760430     0.627778     0.928942  Biso 1.000000     C
    C   1.0     0.307524     0.697731     0.912789  Biso 1.000000     C
    C   1.0     0.807373     0.697894     0.912850  Biso 1.000000     C
    C   1.0     0.333906     0.555063     0.671645  Biso 1.000000     C
    C   1.0     0.833862     0.555134     0.671651  Biso 1.000000     C
    C   1.0     0.375554     0.470277     0.731911  Biso 1.000000     C
    C   1.0     0.875514     0.470360     0.731924  Biso 1.000000     C
    C   1.0     0.333837     0.398669     0.779769  Biso 1.000000     C
    C   1.0     0.833794     0.398755     0.779784  Biso 1.000000     C
    C   1.0     0.367243     0.319832     0.839400  Biso 1.000000     C
    C   1.0     0.867194     0.319919     0.839419  Biso 1.000000     C
    C   1.0     0.442447     0.313310     0.854540  Biso 1.000000     C
    C   1.0     0.942401     0.313385     0.854557  Biso 1.000000     C
    C   1.0     0.478425     0.232239     0.921130  Biso 1.000000     C
    C   1.0     0.978387     0.232297     0.921134  Biso 1.000000     C
    C   1.0     0.483703     0.386038     0.808401  Biso 1.000000     C
    C   1.0     0.983657     0.386116     0.808423  Biso 1.000000     C
    C   1.0     0.451546     0.463389     0.747299  Biso 1.000000     C
    C   1.0     0.951507     0.463467     0.747314  Biso 1.000000     C
    C   1.0     0.186573     0.902841     0.488456  Biso 1.000000     C
    C   1.0     0.686546     0.902883     0.488427  Biso 1.000000     C
    C   1.0     0.115409     0.976566     0.469969  Biso 1.000000     C
    C   1.0     0.615386     0.976589     0.469919  Biso 1.000000     C
    C   1.0     0.038223     0.962357     0.510593  Biso 1.000000     C
    C   1.0     0.538202     0.962371     0.510532  Biso 1.000000     C
    C   1.0     0.038096     0.873016     0.571228  Biso 1.000000     C
    C   1.0     0.538072     0.873034     0.571171  Biso 1.000000     C
    C   1.0     0.111905     0.802602     0.587238  Biso 1.000000     C
    C   1.0     0.611876     0.802638     0.587203  Biso 1.000000     C
    C   1.0     0.051664     0.056017     0.171752  Biso 1.000000     C
    C   1.0     0.551672     0.055990     0.171764  Biso 1.000000     C
    C   1.0     0.022382     0.971173     0.232098  Biso 1.000000     C
    C   1.0     0.522387     0.971144     0.232107  Biso 1.000000     C
    C   1.0     0.075942     0.899805     0.279980  Biso 1.000000     C
    C   1.0     0.575945     0.899769     0.279989  Biso 1.000000     C
    C   1.0     0.052145     0.820916     0.339631  Biso 1.000000     C
    C   1.0     0.552148     0.820872     0.339631  Biso 1.000000     C
    C   1.0     0.472700     0.814116     0.354745  Biso 1.000000     C
    C   1.0     0.972681     0.814163     0.354752  Biso 1.000000     C
    C   1.0     0.443928     0.733103     0.421391  Biso 1.000000     C
    C   1.0     0.943906     0.733158     0.421400  Biso 1.000000     C
    C   1.0     0.418198     0.886579     0.308557  Biso 1.000000     C
    C   1.0     0.918179     0.886619     0.308563  Biso 1.000000     C
    C   1.0     0.442236     0.963966     0.247429  Biso 1.000000     C
    C   1.0     0.942218     0.963994     0.247421  Biso 1.000000     C
    C   1.0     0.117115     0.403540     0.988447  Biso 1.000000     C
    C   1.0     0.617180     0.403444     0.988377  Biso 1.000000     C
    C   1.0     0.160962     0.477036     0.969916  Biso 1.000000     C
    C   1.0     0.660993     0.476977     0.969855  Biso 1.000000     C
    C   1.0     0.224992     0.462518     0.010499  Biso 1.000000     C
    C   1.0     0.724968     0.462552     0.010498  Biso 1.000000     C
    C   1.0     0.239205     0.373174     0.071144  Biso 1.000000     C
    C   1.0     0.739176     0.373244     0.071175  Biso 1.000000     C
    C   1.0     0.192307     0.303010     0.087187  Biso 1.000000     C
    C   1.0     0.692315     0.303032     0.087202  Biso 1.000000     C
    C   1.0     0.165625     0.445729     0.328478  Biso 1.000000     C
    C   1.0     0.665654     0.445688     0.328506  Biso 1.000000     C
    C   1.0     0.124137     0.530495     0.268132  Biso 1.000000     C
    C   1.0     0.624162     0.530465     0.268170  Biso 1.000000     C
    C   1.0     0.165878     0.602087     0.220320  Biso 1.000000     C
    C   1.0     0.665905     0.602058     0.220363  Biso 1.000000     C
    C   1.0     0.132494     0.680880     0.160657  Biso 1.000000     C
    C   1.0     0.632520     0.680865     0.160707  Biso 1.000000     C
    C   1.0     0.057319     0.687336     0.145473  Biso 1.000000     C
    C   1.0     0.557359     0.687304     0.145497  Biso 1.000000     C
    C   1.0     0.021409     0.768288     0.078808  Biso 1.000000     C
    C   1.0     0.521461     0.768252     0.078822  Biso 1.000000     C
    C   1.0     0.016044     0.614620     0.191584  Biso 1.000000     C
    C   1.0     0.516082     0.614589     0.191603  Biso 1.000000     C
    C   1.0     0.048171     0.537332     0.252727  Biso 1.000000     C
    C   1.0     0.548207     0.537294     0.252741  Biso 1.000000     C
    C   1.0     0.312856     0.098114     0.511773  Biso 1.000000     C
    C   1.0     0.812859     0.098102     0.511856  Biso 1.000000     C
    C   1.0     0.384003     0.024351     0.530288  Biso 1.000000     C
    C   1.0     0.884007     0.024357     0.530383  Biso 1.000000     C
    C   1.0     0.461229     0.038389     0.489554  Biso 1.000000     C
    C   1.0     0.961233     0.038378     0.489622  Biso 1.000000     C
    C   1.0     0.461414     0.127580     0.428773  Biso 1.000000     C
    C   1.0     0.961418     0.127545     0.428814  Biso 1.000000     C
    C   1.0     0.387622     0.198042     0.412757  Biso 1.000000     C
    C   1.0     0.887624     0.197994     0.412794  Biso 1.000000     C
    N   1.0     0.367644     0.683942     0.953997  Biso 1.000000     N
    N   1.0     0.867520     0.684100     0.954021  Biso 1.000000     N
    N   1.0     0.185867     0.816018     0.545925  Biso 1.000000     N
    N   1.0     0.685836     0.816070     0.545905  Biso 1.000000     N
    N   1.0     0.132263     0.316681     0.045898  Biso 1.000000     N
    N   1.0     0.632312     0.316627     0.045870  Biso 1.000000     N
    N   1.0     0.313614     0.184826     0.454190  Biso 1.000000     N
    N   1.0     0.813615     0.184788     0.454242  Biso 1.000000     N
    O   1.0     0.456163     0.930133     0.909619  Biso 1.000000     O
    O   1.0     0.956141     0.930182     0.909578  Biso 1.000000     O
    O   1.0     0.418270     0.885590     0.799782  Biso 1.000000     O
    O   1.0     0.918033     0.885961     0.799766  Biso 1.000000     O
    O   1.0     0.500884     0.345816     0.551183  Biso 1.000000     O
    O   1.0     0.000000     0.345923     0.551170  Biso 1.000000     O
    O   1.0     0.133686     0.251369     0.555416  Biso 1.000000     O
    O   1.0     0.633696     0.251096     0.555375  Biso 1.000000     O
    O   1.0     0.213957     0.959060     0.752015  Biso 1.000000     O
    O   1.0     0.713972     0.959043     0.752028  Biso 1.000000     O
    O   1.0     0.112626     0.977650     0.896989  Biso 1.000000     O
    O   1.0     0.612641     0.977625     0.896998  Biso 1.000000     O
    O   1.0     0.132623     0.833265     0.792936  Biso 1.000000     O
    O   1.0     0.632694     0.833178     0.792974  Biso 1.000000     O
    O   1.0     0.056851     0.686411     0.862162  Biso 1.000000     O
    O   1.0     0.556939     0.686272     0.862180  Biso 1.000000     O
    O   1.0     0.375332     0.569818     0.590068  Biso 1.000000     O
    O   1.0     0.875302     0.569934     0.590092  Biso 1.000000     O
    O   1.0     0.260301     0.613766     0.700001  Biso 1.000000     O
    O   1.0     0.760241     0.613788     0.699993  Biso 1.000000     O
    O   1.0     0.448659     0.154910     0.948951  Biso 1.000000     O
    O   1.0     0.948626     0.154960     0.948946  Biso 1.000000     O
    O   1.0     0.036221     0.249870     0.944547  Biso 1.000000     O
    O   1.0     0.536240     0.249822     0.944547  Biso 1.000000     O
    O   1.0     0.068434     0.542387     0.748078  Biso 1.000000     O
    O   1.0     0.568431     0.542359     0.748065  Biso 1.000000     O
    O   1.0     0.049141     0.524094     0.602985  Biso 1.000000     O
    O   1.0     0.549152     0.524044     0.602972  Biso 1.000000     O
    O   1.0     0.444507     0.667566     0.707260  Biso 1.000000     O
    O   1.0     0.944518     0.667645     0.707273  Biso 1.000000     O
    O   1.0     0.330359     0.813976     0.637672  Biso 1.000000     O
    O   1.0     0.830355     0.814002     0.637685  Biso 1.000000     O
    O   1.0     0.043805     0.070336     0.090152  Biso 1.000000     O
    O   1.0     0.543822     0.070307     0.090159  Biso 1.000000     O
    O   1.0     0.081397     0.115311     0.200051  Biso 1.000000     O
    O   1.0     0.581402     0.115287     0.200063  Biso 1.000000     O
    O   1.0    -0.001624     0.656010     0.449325  Biso 1.000000     O
    O   1.0     0.498384     0.655941     0.449301  Biso 1.000000     O
    O   1.0     0.365652     0.750570     0.444760  Biso 1.000000     O
    O   1.0     0.865633     0.750609     0.444755  Biso 1.000000     O
    O   1.0     0.285683     0.042247     0.247803  Biso 1.000000     O
    O   1.0     0.785669     0.042227     0.247792  Biso 1.000000     O
    O   1.0     0.387182     0.022887     0.102915  Biso 1.000000     O
    O   1.0     0.887157     0.022911     0.102905  Biso 1.000000     O
    O   1.0     0.367174     0.167808     0.206554  Biso 1.000000     O
    O   1.0     0.867126     0.167832     0.206556  Biso 1.000000     O
    O   1.0     0.443126     0.314527     0.137526  Biso 1.000000     O
    O   1.0     0.943077     0.314559     0.137523  Biso 1.000000     O
    O   1.0     0.124162     0.431477     0.410112  Biso 1.000000     O
    O   1.0     0.624196     0.431424     0.410145  Biso 1.000000     O
    O   1.0     0.239114     0.386542     0.300112  Biso 1.000000     O
    O   1.0     0.739150     0.386534     0.300138  Biso 1.000000     O
    O   1.0     0.051176     0.845614     0.050973  Biso 1.000000     O
    O   1.0     0.551221     0.845585     0.050987  Biso 1.000000     O
    O   1.0     0.463724     0.750558     0.055334  Biso 1.000000     O
    O   1.0     0.963644     0.750616     0.055332  Biso 1.000000     O
    O   1.0     0.431444     0.458019     0.252022  Biso 1.000000     O
    O   1.0     0.931402     0.458034     0.252026  Biso 1.000000     O
    O   1.0     0.450618     0.476797     0.397083  Biso 1.000000     O
    O   1.0     0.950570     0.476879     0.397076  Biso 1.000000     O
    O   1.0     0.055348     0.333172     0.292951  Biso 1.000000     O
    O   1.0     0.555384     0.333138     0.292926  Biso 1.000000     O
    O   1.0     0.169262     0.186616     0.362692  Biso 1.000000     O
    O   1.0     0.669281     0.186593     0.362671  Biso 1.000000     O
    S   1.0     0.134503     0.943955     0.803215  Biso 1.000000     S
    S   1.0     0.634534     0.943894     0.803232  Biso 1.000000     S
    S   1.0     0.007114     0.557264     0.696853  Biso 1.000000     S
    S   1.0     0.507116     0.557208     0.696841  Biso 1.000000     S
    S   1.0     0.365210     0.057092     0.196566  Biso 1.000000     S
    S   1.0     0.865185     0.057105     0.196558  Biso 1.000000     S
    S   1.0     0.492704     0.443438     0.303261  Biso 1.000000     S
    S   1.0     0.992658     0.443476     0.303264  Biso 1.000000     S
   Zn   1.0     0.442378     0.777754     0.933884  Biso 1.000000    Zn
   Zn   1.0     0.942298     0.777851     0.933877  Biso 1.000000    Zn
   Zn   1.0     0.297392     0.722209     0.566092  Biso 1.000000    Zn
   Zn   1.0     0.797351     0.722327     0.566099  Biso 1.000000    Zn
   Zn   1.0     0.057650     0.222665     0.065965  Biso 1.000000    Zn
   Zn   1.0     0.557679     0.222635     0.065965  Biso 1.000000    Zn
   Zn   1.0     0.202071     0.279063     0.434035  Biso 1.000000    Zn
   Zn   1.0     0.702078     0.278992     0.434054  Biso 1.000000    Zn
   Zn   1.0    -0.000101     0.000183    -0.000060  Biso 1.000000    Zn
   Zn   1.0     0.499920     0.000166     0.999959  Biso 1.000000    Zn
   Zn   1.0    -0.000449     0.501157     0.500080  Biso 1.000000    Zn
   Zn   1.0     0.499583     0.501067     0.500079  Biso 1.000000    Zn
