#======================================================================

# CRYSTAL DATA

#----------------------------------------------------------------------

data_VESTA_phase_1


_pd_phase_name                         MOF
_cell_length_a                         21.73900
_cell_length_b                         12.22500
_cell_length_c                         12.09600
_cell_angle_alpha                      89.98000
_cell_angle_beta                       89.90400
_cell_angle_gamma                      107.08500
_symmetry_space_group_name_H-M         "P 1"
_symmetry_Int_Tables_number            1

loop_
_symmetry_equiv_pos_as_xyz
   "x, y, z"

loop_
   _atom_site_label
   _atom_site_occupancy
   _atom_site_fract_x
   _atom_site_fract_y
   _atom_site_fract_z
   _atom_site_adp_type
   _atom_site_B_iso_or_equiv
   _atom_site_type_symbol
    H   1.0     0.338510     0.966809     0.526964  Biso 1.000000     H
    H   1.0     0.838313     0.966351     0.526459  Biso 1.000000     H
    H   1.0     0.411537     0.033402     0.000000  Biso 1.000000     H
    H   1.0     0.911626     0.033499     0.000000  Biso 1.000000     H
    H   1.0     0.161738     0.033652     0.473576  Biso 1.000000     H
    H   1.0     0.661531     0.033184     0.473020  Biso 1.000000     H
    H   1.0     0.088385     0.966468    -0.027017  Biso 1.000000     H
    H   1.0     0.588540     0.966697    -0.027225  Biso 1.000000     H
    C   1.0     0.316700     0.203161     0.301660  Biso 1.000000     C
    C   1.0     0.816394     0.203093     0.301415  Biso 1.000000     C
    C   1.0     0.136946     0.353025     0.969192  Biso 1.000000     C
    C   1.0     0.637059     0.353285     0.969200  Biso 1.000000     C
    C   1.0     0.234792     0.513195     0.267337  Biso 1.000000     C
    C   1.0     0.734803     0.513428     0.267651  Biso 1.000000     C
    C   1.0     0.189007     0.107124     0.122487  Biso 1.000000     C
    C   1.0     0.689017     0.107136     0.121940  Biso 1.000000     C
    C   1.0     0.285476     0.884870     0.251757  Biso 1.000000     C
    C   1.0     0.785277     0.884786     0.251164  Biso 1.000000     C
    C   1.0     0.433662     0.797216     0.801712  Biso 1.000000     C
    C   1.0     0.933657     0.797213     0.801596  Biso 1.000000     C
    C   1.0     0.112957     0.646689     0.469139  Biso 1.000000     C
    C   1.0     0.612562     0.646239     0.469139  Biso 1.000000     C
    C   1.0     0.015159     0.486454     0.767226  Biso 1.000000     C
    C   1.0     0.515055     0.486217     0.767577  Biso 1.000000     C
    C   1.0     0.061445     0.892900     0.622905  Biso 1.000000     C
    C   1.0     0.561190     0.892896     0.622352  Biso 1.000000     C
    C   1.0     0.464674     0.115000     0.751257  Biso 1.000000     C
    C   1.0     0.964516     0.114743     0.750995  Biso 1.000000     C
    C   1.0     0.183654     0.796936     0.698631  Biso 1.000000     C
    C   1.0     0.683330     0.796871     0.698352  Biso 1.000000     C
    C   1.0     0.363032     0.646815     0.030828  Biso 1.000000     C
    C   1.0     0.863059     0.646943     0.030819  Biso 1.000000     C
    C   1.0     0.265249     0.486637     0.732404  Biso 1.000000     C
    C   1.0     0.765233     0.486809     0.732673  Biso 1.000000     C
    C   1.0     0.311069     0.892916     0.877999  Biso 1.000000     C
    C   1.0     0.811007     0.892876     0.877560  Biso 1.000000     C
    C   1.0     0.214755     0.115203     0.748868  Biso 1.000000     C
    C   1.0     0.714592     0.115203     0.748216  Biso 1.000000     C
    C   1.0     0.066356     0.202781     0.198439  Biso 1.000000     C
    C   1.0     0.566428     0.202817     0.198272  Biso 1.000000     C
    C   1.0     0.387474     0.353745     0.530885  Biso 1.000000     C
    C   1.0     0.887078     0.353313     0.530898  Biso 1.000000     C
    C   1.0     0.484981     0.513780     0.232502  Biso 1.000000     C
    C   1.0     0.984878     0.513582     0.232785  Biso 1.000000     C
    C   1.0     0.438861     0.107122     0.377580  Biso 1.000000     C
    C   1.0     0.938595     0.107107     0.377152  Biso 1.000000     C
    C   1.0     0.035506     0.885257     0.249075  Biso 1.000000     C
    C   1.0     0.535415     0.885031     0.248656  Biso 1.000000     C
    N   1.0     0.339120     0.291875     0.258737  Biso 1.000000     N
    N   1.0     0.838857     0.291848     0.258592  Biso 1.000000     N
    N   1.0     0.130145     0.442691     0.949375  Biso 1.000000     N
    N   1.0     0.630207     0.442973     0.949664  Biso 1.000000     N
    N   1.0     0.289273     0.517449     0.268928  Biso 1.000000     N
    N   1.0     0.789294     0.517755     0.269233  Biso 1.000000     N
    N   1.0     0.194556     0.053623     0.200167  Biso 1.000000     N
    N   1.0     0.694388     0.053456     0.199598  Biso 1.000000     N
    N   1.0     0.298485     0.830733     0.180494  Biso 1.000000     N
    N   1.0     0.798300     0.830684     0.179888  Biso 1.000000     N
    N   1.0     0.411199     0.708622     0.758787  Biso 1.000000     N
    N   1.0     0.911266     0.708625     0.758614  Biso 1.000000     N
    N   1.0     0.119550     0.556859     0.449405  Biso 1.000000     N
    N   1.0     0.619153     0.556381     0.449525  Biso 1.000000     N
    N   1.0     0.460615     0.482265     0.769246  Biso 1.000000     N
    N   1.0     0.960707     0.482484     0.768906  Biso 1.000000     N
    N   1.0     0.056214     0.946712     0.700542  Biso 1.000000     N
    N   1.0     0.555950     0.946726     0.699972  Biso 1.000000     N
    N   1.0     0.451505     0.168771     0.679881  Biso 1.000000     N
    N   1.0     0.951221     0.168370     0.679624  Biso 1.000000     N
    N   1.0     0.161188     0.708189     0.741468  Biso 1.000000     N
    N   1.0     0.660905     0.708156     0.741270  Biso 1.000000     N
    N   1.0     0.369882     0.557132     0.050394  Biso 1.000000     N
    N   1.0     0.869864     0.557279     0.050636  Biso 1.000000     N
    N   1.0     0.210758     0.482308     0.730818  Biso 1.000000     N
    N   1.0     0.710754     0.482569     0.731081  Biso 1.000000     N
    N   1.0     0.305704     0.946595     0.800339  Biso 1.000000     N
    N   1.0     0.805461     0.946386     0.799884  Biso 1.000000     N
    N   1.0     0.201713     0.169280     0.820148  Biso 1.000000     N
    N   1.0     0.701595     0.169364     0.819469  Biso 1.000000     N
    N   1.0     0.088749     0.291371     0.241414  Biso 1.000000     N
    N   1.0     0.588889     0.291408     0.241206  Biso 1.000000     N
    N   1.0     0.380879     0.443592     0.550543  Biso 1.000000     N
    N   1.0     0.880478     0.443141     0.550616  Biso 1.000000     N
    N   1.0     0.039330     0.517546     0.231106  Biso 1.000000     N
    N   1.0     0.539418     0.517718     0.230832  Biso 1.000000     N
    N   1.0     0.444122     0.053302     0.299966  Biso 1.000000     N
    N   1.0     0.943807     0.053279     0.299515  Biso 1.000000     N
    N   1.0     0.048809     0.831642     0.320449  Biso 1.000000     N
    N   1.0     0.548590     0.831257     0.320022  Biso 1.000000     N
    O   1.0     0.317652     0.000000     0.527137  Biso 1.000000     O
    O   1.0     0.817519     0.000000     0.526670  Biso 1.000000     O
    O   1.0     0.432307    -0.027357     0.027135  Biso 1.000000     O
    O   1.0     0.932425    -0.027223     0.026915  Biso 1.000000     O
    O   1.0     0.182537    -0.027065     0.473366  Biso 1.000000     O
    O   1.0     0.682393    -0.027452     0.472850  Biso 1.000000     O
    O   1.0     0.067590     0.000000     0.973139  Biso 1.000000     O
    O   1.0     0.567757     0.000000     0.972828  Biso 1.000000     O
   Cd   1.0     0.263153     0.021291     0.348809  Biso 1.000000    Cd
   Cd   1.0     0.762961     0.021118     0.348307  Biso 1.000000    Cd
   Cd   1.0     0.155510     0.186997     0.983068  Biso 1.000000    Cd
   Cd   1.0     0.655635     0.187251     0.982571  Biso 1.000000    Cd
   Cd   1.0     0.379887     0.475703     0.216292  Biso 1.000000    Cd
   Cd   1.0     0.879797     0.475720     0.216472  Biso 1.000000    Cd
   Cd   1.0     0.487192     0.979061     0.848701  Biso 1.000000    Cd
   Cd   1.0     0.987191     0.979092     0.848649  Biso 1.000000    Cd
   Cd   1.0     0.094753     0.812990     0.483086  Biso 1.000000    Cd
   Cd   1.0     0.594478     0.812672     0.482738  Biso 1.000000    Cd
   Cd   1.0     0.370403     0.524908     0.716330  Biso 1.000000    Cd
   Cd   1.0     0.870365     0.524899     0.716312  Biso 1.000000    Cd
   Cd   1.0     0.237095     0.978905     0.651706  Biso 1.000000    Cd
   Cd   1.0     0.736886     0.978730     0.651198  Biso 1.000000    Cd
   Cd   1.0     0.344444     0.812834     0.017399  Biso 1.000000    Cd
   Cd   1.0     0.844500     0.812975     0.016961  Biso 1.000000    Cd
   Cd   1.0     0.120239     0.524312     0.783562  Biso 1.000000    Cd
   Cd   1.0     0.620152     0.524335     0.783746  Biso 1.000000    Cd
   Cd   1.0     0.012823     0.020891     0.151406  Biso 1.000000    Cd
   Cd   1.0     0.512883     0.020987     0.151252  Biso 1.000000    Cd
   Cd   1.0     0.405569     0.187325     0.517203  Biso 1.000000    Cd
   Cd   1.0     0.905294     0.187022     0.516973  Biso 1.000000    Cd
   Cd   1.0     0.129660     0.475097     0.283708  Biso 1.000000    Cd
   Cd   1.0     0.629647     0.475113     0.283716  Biso 1.000000    Cd
