#======================================================================

# CRYSTAL DATA

#----------------------------------------------------------------------

data_VESTA_phase_1


_pd_phase_name                         MOF
_cell_length_a                         15.74000
_cell_length_b                         23.16700
_cell_length_c                         13.53400
_cell_angle_alpha                      90.00100
_cell_angle_beta                       90.00000
_cell_angle_gamma                      109.79100
_symmetry_space_group_name_H-M         "P 1"
_symmetry_Int_Tables_number            1

loop_
_symmetry_equiv_pos_as_xyz
   "x, y, z"

loop_
   _atom_site_label
   _atom_site_occupancy
   _atom_site_fract_x
   _atom_site_fract_y
   _atom_site_fract_z
   _atom_site_adp_type
   _atom_site_B_iso_or_equiv
   _atom_site_type_symbol
    H   1.0     0.095969     0.055319     0.904781  Biso 1.000000     H
    H   1.0     0.095968     0.555326     0.904780  Biso 1.000000     H
    H   1.0     0.595971     0.055318     0.904780  Biso 1.000000     H
    H   1.0     0.595972     0.555328     0.904781  Biso 1.000000     H
    H   1.0     0.196580     0.096375     0.839217  Biso 1.000000     H
    H   1.0     0.196582     0.596385     0.839215  Biso 1.000000     H
    H   1.0     0.696584     0.096376     0.839216  Biso 1.000000     H
    H   1.0     0.696582     0.596384     0.839217  Biso 1.000000     H
    H   1.0     0.040767     0.443832     0.595235  Biso 1.000000     H
    H   1.0     0.040767     0.943840     0.595234  Biso 1.000000     H
    H   1.0     0.540769     0.443831     0.595234  Biso 1.000000     H
    H   1.0     0.540769     0.943840     0.595235  Biso 1.000000     H
    H   1.0     0.100829     0.403053     0.660853  Biso 1.000000     H
    H   1.0     0.100828     0.903062     0.660851  Biso 1.000000     H
    H   1.0     0.600830     0.403053     0.660851  Biso 1.000000     H
    H   1.0     0.600830     0.903061     0.660852  Biso 1.000000     H
    H   1.0     0.095968     0.055318     0.595236  Biso 1.000000     H
    H   1.0     0.095967     0.555325     0.595237  Biso 1.000000     H
    H   1.0     0.595970     0.055317     0.595237  Biso 1.000000     H
    H   1.0     0.595971     0.555327     0.595236  Biso 1.000000     H
    H   1.0     0.196579     0.096375     0.660801  Biso 1.000000     H
    H   1.0     0.196581     0.596384     0.660803  Biso 1.000000     H
    H   1.0     0.696583     0.096375     0.660802  Biso 1.000000     H
    H   1.0     0.696582     0.596383     0.660801  Biso 1.000000     H
    H   1.0     0.040767     0.443834     0.904778  Biso 1.000000     H
    H   1.0     0.040768     0.943841     0.904779  Biso 1.000000     H
    H   1.0     0.540770     0.443832     0.904778  Biso 1.000000     H
    H   1.0     0.540770     0.943842     0.904778  Biso 1.000000     H
    H   1.0     0.100830     0.403053     0.839158  Biso 1.000000     H
    H   1.0     0.100828     0.903063     0.839160  Biso 1.000000     H
    H   1.0     0.600830     0.403054     0.839160  Biso 1.000000     H
    H   1.0     0.600831     0.903062     0.839159  Biso 1.000000     H
    H   1.0     0.460745    -0.000572     0.815937  Biso 1.000000     H
    H   1.0     0.460744     0.499437     0.815934  Biso 1.000000     H
    H   1.0     0.960739    -0.000572     0.815934  Biso 1.000000     H
    H   1.0     0.960741     0.499436     0.815938  Biso 1.000000     H
    H   1.0     0.460745    -0.000573     0.684078  Biso 1.000000     H
    H   1.0     0.460744     0.499436     0.684081  Biso 1.000000     H
    H   1.0     0.960739    -0.000573     0.684081  Biso 1.000000     H
    H   1.0     0.960741     0.499436     0.684077  Biso 1.000000     H
    H   1.0     0.237370     0.458955     0.750006  Biso 1.000000     H
    H   1.0     0.237372     0.958964     0.750006  Biso 1.000000     H
    H   1.0     0.737374     0.458955     0.750006  Biso 1.000000     H
    H   1.0     0.737373     0.958963     0.750006  Biso 1.000000     H
    H   1.0     0.277903     0.040854     0.750008  Biso 1.000000     H
    H   1.0     0.277903     0.540863     0.750008  Biso 1.000000     H
    H   1.0     0.777905     0.040853     0.750008  Biso 1.000000     H
    H   1.0     0.777906     0.540862     0.750008  Biso 1.000000     H
    H   1.0     0.404055     0.444696     0.404773  Biso 1.000000     H
    H   1.0     0.404054     0.944703     0.404774  Biso 1.000000     H
    H   1.0     0.904057     0.444694     0.404774  Biso 1.000000     H
    H   1.0     0.904058     0.944704     0.404773  Biso 1.000000     H
    H   1.0     0.303441     0.403636     0.339207  Biso 1.000000     H
    H   1.0     0.303443     0.903646     0.339208  Biso 1.000000     H
    H   1.0     0.803446     0.403637     0.339209  Biso 1.000000     H
    H   1.0     0.803445     0.903645     0.339208  Biso 1.000000     H
    H   1.0     0.459254     0.056180     0.095231  Biso 1.000000     H
    H   1.0     0.459254     0.556187     0.095232  Biso 1.000000     H
    H   1.0     0.959256     0.056179     0.095231  Biso 1.000000     H
    H   1.0     0.959257     0.556189     0.095231  Biso 1.000000     H
    H   1.0     0.399193     0.096958     0.160850  Biso 1.000000     H
    H   1.0     0.399191     0.596967     0.160851  Biso 1.000000     H
    H   1.0     0.899194     0.096958     0.160851  Biso 1.000000     H
    H   1.0     0.899195     0.596966     0.160850  Biso 1.000000     H
    H   1.0     0.404054     0.444694     0.095230  Biso 1.000000     H
    H   1.0     0.404053     0.944701     0.095228  Biso 1.000000     H
    H   1.0     0.904056     0.444693     0.095228  Biso 1.000000     H
    H   1.0     0.904057     0.944702     0.095229  Biso 1.000000     H
    H   1.0     0.303440     0.403636     0.160794  Biso 1.000000     H
    H   1.0     0.303443     0.903645     0.160793  Biso 1.000000     H
    H   1.0     0.803446     0.403637     0.160792  Biso 1.000000     H
    H   1.0     0.803445     0.903645     0.160793  Biso 1.000000     H
    H   1.0     0.459255     0.056181     0.404775  Biso 1.000000     H
    H   1.0     0.459255     0.556188     0.404775  Biso 1.000000     H
    H   1.0     0.959257     0.056180     0.404775  Biso 1.000000     H
    H   1.0     0.959257     0.556190     0.404776  Biso 1.000000     H
    H   1.0     0.399193     0.096958     0.339158  Biso 1.000000     H
    H   1.0     0.399192     0.596968     0.339157  Biso 1.000000     H
    H   1.0     0.899194     0.096958     0.339157  Biso 1.000000     H
    H   1.0     0.899196     0.596967     0.339158  Biso 1.000000     H
    H   1.0     0.039284     0.000577     0.315930  Biso 1.000000     H
    H   1.0     0.039285     0.500585     0.315928  Biso 1.000000     H
    H   1.0     0.539280     0.000576     0.315929  Biso 1.000000     H
    H   1.0     0.539279     0.500585     0.315933  Biso 1.000000     H
    H   1.0     0.039284     0.000576     0.184074  Biso 1.000000     H
    H   1.0     0.039285     0.500585     0.184076  Biso 1.000000     H
    H   1.0     0.539279     0.000576     0.184075  Biso 1.000000     H
    H   1.0     0.539279     0.500585     0.184072  Biso 1.000000     H
    H   1.0     0.262650     0.041056     0.250003  Biso 1.000000     H
    H   1.0     0.262652     0.541065     0.250003  Biso 1.000000     H
    H   1.0     0.762652     0.041056     0.250003  Biso 1.000000     H
    H   1.0     0.762652     0.541065     0.250003  Biso 1.000000     H
    H   1.0     0.222119     0.459157     0.250002  Biso 1.000000     H
    H   1.0     0.222119     0.959166     0.250001  Biso 1.000000     H
    H   1.0     0.722121     0.459157     0.250002  Biso 1.000000     H
    H   1.0     0.722121     0.959165     0.250001  Biso 1.000000     H
    C   1.0     0.175039     0.106005     0.122424  Biso 1.000000     C
    C   1.0     0.175039     0.606014     0.122423  Biso 1.000000     C
    C   1.0     0.675037     0.106004     0.122424  Biso 1.000000     C
    C   1.0     0.675038     0.606013     0.122424  Biso 1.000000     C
    C   1.0     0.324985     0.394006     0.622425  Biso 1.000000     C
    C   1.0     0.324985     0.894014     0.622426  Biso 1.000000     C
    C   1.0     0.824983     0.394005     0.622425  Biso 1.000000     C
    C   1.0     0.824983     0.894013     0.622424  Biso 1.000000     C
    C   1.0     0.069145     0.394506     0.377519  Biso 1.000000     C
    C   1.0     0.069145     0.894515     0.377519  Biso 1.000000     C
    C   1.0     0.569145     0.394507     0.377519  Biso 1.000000     C
    C   1.0     0.569145     0.894515     0.377519  Biso 1.000000     C
    C   1.0     0.430879     0.105507     0.877527  Biso 1.000000     C
    C   1.0     0.430879     0.605516     0.877528  Biso 1.000000     C
    C   1.0     0.930878     0.105508     0.877528  Biso 1.000000     C
    C   1.0     0.930879     0.605517     0.877528  Biso 1.000000     C
    C   1.0     0.324986     0.394008     0.877586  Biso 1.000000     C
    C   1.0     0.324986     0.894016     0.877586  Biso 1.000000     C
    C   1.0     0.824984     0.394007     0.877586  Biso 1.000000     C
    C   1.0     0.824984     0.894015     0.877587  Biso 1.000000     C
    C   1.0     0.175040     0.106007     0.377584  Biso 1.000000     C
    C   1.0     0.175040     0.606015     0.377584  Biso 1.000000     C
    C   1.0     0.675039     0.106006     0.377584  Biso 1.000000     C
    C   1.0     0.675039     0.606015     0.377583  Biso 1.000000     C
    C   1.0     0.430878     0.105506     0.622491  Biso 1.000000     C
    C   1.0     0.430878     0.605514     0.622491  Biso 1.000000     C
    C   1.0     0.930877     0.105506     0.622490  Biso 1.000000     C
    C   1.0     0.930878     0.605515     0.622491  Biso 1.000000     C
    C   1.0     0.069144     0.394504     0.122481  Biso 1.000000     C
    C   1.0     0.069145     0.894513     0.122481  Biso 1.000000     C
    C   1.0     0.569144     0.394505     0.122482  Biso 1.000000     C
    C   1.0     0.569144     0.894514     0.122482  Biso 1.000000     C
    C   1.0     0.062478     0.217417     0.250003  Biso 1.000000     C
    C   1.0     0.062477     0.717425     0.250003  Biso 1.000000     C
    C   1.0     0.562476     0.217417     0.250003  Biso 1.000000     C
    C   1.0     0.562476     0.717425     0.250003  Biso 1.000000     C
    C   1.0     0.437547     0.282596     0.750007  Biso 1.000000     C
    C   1.0     0.437548     0.782605     0.750007  Biso 1.000000     C
    C   1.0     0.937546     0.282596     0.750007  Biso 1.000000     C
    C   1.0     0.937546     0.782605     0.750007  Biso 1.000000     C
    C   1.0     0.345251     0.283323     0.250001  Biso 1.000000     C
    C   1.0     0.345250     0.783331     0.250001  Biso 1.000000     C
    C   1.0     0.845248     0.283322     0.250001  Biso 1.000000     C
    C   1.0     0.845249     0.783331     0.250001  Biso 1.000000     C
    C   1.0     0.154775     0.216690     0.750008  Biso 1.000000     C
    C   1.0     0.154775     0.716698     0.750008  Biso 1.000000     C
    C   1.0     0.654772     0.216689     0.750008  Biso 1.000000     C
    C   1.0     0.654773     0.716698     0.750008  Biso 1.000000     C
    C   1.0     0.135885     0.055171     0.838408  Biso 1.000000     C
    C   1.0     0.135887     0.555181     0.838409  Biso 1.000000     C
    C   1.0     0.635889     0.055172     0.838408  Biso 1.000000     C
    C   1.0     0.635888     0.555180     0.838407  Biso 1.000000     C
    C   1.0     0.080874     0.444124     0.661626  Biso 1.000000     C
    C   1.0     0.080874     0.944134     0.661626  Biso 1.000000     C
    C   1.0     0.580876     0.444125     0.661626  Biso 1.000000     C
    C   1.0     0.580876     0.944133     0.661626  Biso 1.000000     C
    C   1.0     0.135885     0.055171     0.661609  Biso 1.000000     C
    C   1.0     0.135886     0.555181     0.661608  Biso 1.000000     C
    C   1.0     0.635889     0.055171     0.661609  Biso 1.000000     C
    C   1.0     0.635888     0.555179     0.661609  Biso 1.000000     C
    C   1.0     0.080874     0.444125     0.838387  Biso 1.000000     C
    C   1.0     0.080874     0.944135     0.838386  Biso 1.000000     C
    C   1.0     0.580876     0.444126     0.838386  Biso 1.000000     C
    C   1.0     0.580876     0.944134     0.838386  Biso 1.000000     C
    C   1.0     0.501354    -0.000511     0.750007  Biso 1.000000     C
    C   1.0     0.501356     0.499498     0.750008  Biso 1.000000     C
    C   1.0     0.000000    -0.000511     0.750007  Biso 1.000000     C
    C   1.0     0.000000     0.499498     0.750007  Biso 1.000000     C
    C   1.0     0.217170    -0.000174     0.750007  Biso 1.000000     C
    C   1.0     0.217171     0.499835     0.750007  Biso 1.000000     C
    C   1.0     0.717172    -0.000174     0.750007  Biso 1.000000     C
    C   1.0     0.717172     0.499835     0.750007  Biso 1.000000     C
    C   1.0     0.364135     0.444840     0.338401  Biso 1.000000     C
    C   1.0     0.364137     0.944850     0.338401  Biso 1.000000     C
    C   1.0     0.864140     0.444842     0.338401  Biso 1.000000     C
    C   1.0     0.864139     0.944849     0.338402  Biso 1.000000     C
    C   1.0     0.419147     0.055886     0.161623  Biso 1.000000     C
    C   1.0     0.419147     0.555896     0.161623  Biso 1.000000     C
    C   1.0     0.919149     0.055886     0.161623  Biso 1.000000     C
    C   1.0     0.919150     0.555894     0.161623  Biso 1.000000     C
    C   1.0     0.364135     0.444839     0.161601  Biso 1.000000     C
    C   1.0     0.364137     0.944849     0.161601  Biso 1.000000     C
    C   1.0     0.864140     0.444841     0.161601  Biso 1.000000     C
    C   1.0     0.864139     0.944848     0.161601  Biso 1.000000     C
    C   1.0     0.419148     0.055887     0.338383  Biso 1.000000     C
    C   1.0     0.419148     0.555897     0.338384  Biso 1.000000     C
    C   1.0     0.919150     0.055887     0.338384  Biso 1.000000     C
    C   1.0     0.919150     0.555895     0.338384  Biso 1.000000     C
    C   1.0    -0.001327     0.000515     0.250002  Biso 1.000000     C
    C   1.0    -0.001329     0.500523     0.250002  Biso 1.000000     C
    C   1.0     0.498667     0.000514     0.250002  Biso 1.000000     C
    C   1.0     0.498671     0.500523     0.250002  Biso 1.000000     C
    C   1.0     0.282851     0.000177     0.250002  Biso 1.000000     C
    C   1.0     0.282851     0.500185     0.250002  Biso 1.000000     C
    C   1.0     0.782852     0.000176     0.250002  Biso 1.000000     C
    C   1.0     0.782853     0.500185     0.250002  Biso 1.000000     C
    N   1.0     0.197142     0.074237     0.068220  Biso 1.000000     N
    N   1.0     0.197143     0.574245     0.068220  Biso 1.000000     N
    N   1.0     0.697143     0.074236     0.068222  Biso 1.000000     N
    N   1.0     0.697143     0.574245     0.068222  Biso 1.000000     N
    N   1.0     0.302881     0.425773     0.568222  Biso 1.000000     N
    N   1.0     0.302881     0.925782     0.568223  Biso 1.000000     N
    N   1.0     0.802881     0.425773     0.568221  Biso 1.000000     N
    N   1.0     0.802881     0.925781     0.568221  Biso 1.000000     N
    N   1.0     0.123172     0.426178     0.431567  Biso 1.000000     N
    N   1.0     0.123172     0.926187     0.431567  Biso 1.000000     N
    N   1.0     0.623173     0.426179     0.431566  Biso 1.000000     N
    N   1.0     0.623173     0.926187     0.431566  Biso 1.000000     N
    N   1.0     0.376851     0.073835     0.931573  Biso 1.000000     N
    N   1.0     0.376851     0.573844     0.931574  Biso 1.000000     N
    N   1.0     0.876852     0.073835     0.931574  Biso 1.000000     N
    N   1.0     0.876852     0.573845     0.931574  Biso 1.000000     N
    N   1.0     0.302882     0.425775     0.931790  Biso 1.000000     N
    N   1.0     0.302882     0.925784     0.931790  Biso 1.000000     N
    N   1.0     0.802882     0.425775     0.931791  Biso 1.000000     N
    N   1.0     0.802882     0.925783     0.931792  Biso 1.000000     N
    N   1.0     0.197144     0.074239     0.431786  Biso 1.000000     N
    N   1.0     0.197144     0.574247     0.431786  Biso 1.000000     N
    N   1.0     0.697144     0.074238     0.431784  Biso 1.000000     N
    N   1.0     0.697144     0.574247     0.431784  Biso 1.000000     N
    N   1.0     0.376850     0.073833     0.568444  Biso 1.000000     N
    N   1.0     0.376850     0.573842     0.568444  Biso 1.000000     N
    N   1.0     0.876850     0.073834     0.568443  Biso 1.000000     N
    N   1.0     0.876851     0.573843     0.568443  Biso 1.000000     N
    N   1.0     0.123171     0.426177     0.068435  Biso 1.000000     N
    N   1.0     0.123171     0.926185     0.068435  Biso 1.000000     N
    N   1.0     0.623171     0.426177     0.068436  Biso 1.000000     N
    N   1.0     0.623172     0.926185     0.068435  Biso 1.000000     N
    N   1.0     0.034214     0.258054     0.250000  Biso 1.000000     N
    N   1.0     0.034214     0.758063     0.250000  Biso 1.000000     N
    N   1.0     0.534213     0.258055     0.250000  Biso 1.000000     N
    N   1.0     0.534213     0.758063     0.250000  Biso 1.000000     N
    N   1.0     0.465810     0.241958     0.750009  Biso 1.000000     N
    N   1.0     0.465811     0.741967     0.750009  Biso 1.000000     N
    N   1.0     0.965809     0.241959     0.750009  Biso 1.000000     N
    N   1.0     0.965810     0.741967     0.750009  Biso 1.000000     N
    N   1.0     0.276666     0.242522     0.250004  Biso 1.000000     N
    N   1.0     0.276665     0.742531     0.250004  Biso 1.000000     N
    N   1.0     0.776663     0.242521     0.250004  Biso 1.000000     N
    N   1.0     0.776664     0.742530     0.250004  Biso 1.000000     N
    N   1.0     0.223361     0.257490     0.750006  Biso 1.000000     N
    N   1.0     0.223361     0.757498     0.750006  Biso 1.000000     N
    N   1.0     0.723358     0.257489     0.750006  Biso 1.000000     N
    N   1.0     0.723360     0.757497     0.750006  Biso 1.000000     N
    N   1.0     0.164106    -0.000259     0.841056  Biso 1.000000     N
    N   1.0     0.164105     0.499750     0.841055  Biso 1.000000     N
    N   1.0     0.664107    -0.000259     0.841056  Biso 1.000000     N
    N   1.0     0.664108     0.499750     0.841057  Biso 1.000000     N
    N   1.0     0.164105    -0.000260     0.658959  Biso 1.000000     N
    N   1.0     0.164104     0.499749     0.658959  Biso 1.000000     N
    N   1.0     0.664106    -0.000260     0.658958  Biso 1.000000     N
    N   1.0     0.664108     0.499749     0.658958  Biso 1.000000     N
    N   1.0     0.081830     0.055643     0.750008  Biso 1.000000     N
    N   1.0     0.081830     0.555651     0.750008  Biso 1.000000     N
    N   1.0     0.581832     0.055642     0.750008  Biso 1.000000     N
    N   1.0     0.581832     0.555652     0.750008  Biso 1.000000     N
    N   1.0     0.026259     0.443506     0.750006  Biso 1.000000     N
    N   1.0     0.026260     0.943514     0.750006  Biso 1.000000     N
    N   1.0     0.526262     0.443506     0.750006  Biso 1.000000     N
    N   1.0     0.526262     0.943515     0.750006  Biso 1.000000     N
    N   1.0     0.335916     0.000263     0.341051  Biso 1.000000     N
    N   1.0     0.335918     0.500272     0.341051  Biso 1.000000     N
    N   1.0     0.835919     0.000262     0.341050  Biso 1.000000     N
    N   1.0     0.835918     0.500271     0.341050  Biso 1.000000     N
    N   1.0     0.335915     0.000262     0.158954  Biso 1.000000     N
    N   1.0     0.335917     0.500271     0.158954  Biso 1.000000     N
    N   1.0     0.835918     0.000262     0.158954  Biso 1.000000     N
    N   1.0     0.835918     0.500271     0.158954  Biso 1.000000     N
    N   1.0     0.418193     0.444370     0.250001  Biso 1.000000     N
    N   1.0     0.418192     0.944377     0.250001  Biso 1.000000     N
    N   1.0     0.918194     0.444369     0.250001  Biso 1.000000     N
    N   1.0     0.918195     0.944378     0.250001  Biso 1.000000     N
    N   1.0     0.473762     0.056507     0.250003  Biso 1.000000     N
    N   1.0     0.473762     0.556514     0.250003  Biso 1.000000     N
    N   1.0     0.973764     0.056506     0.250003  Biso 1.000000     N
    N   1.0     0.973765     0.556516     0.250003  Biso 1.000000     N
   Cd   1.0     0.142603     0.156680     0.250005  Biso 1.000000    Cd
   Cd   1.0     0.142602     0.656689     0.250005  Biso 1.000000    Cd
   Cd   1.0     0.642600     0.156679     0.250005  Biso 1.000000    Cd
   Cd   1.0     0.642601     0.656688     0.250005  Biso 1.000000    Cd
   Cd   1.0     0.357423     0.343333     0.750005  Biso 1.000000    Cd
   Cd   1.0     0.357423     0.843341     0.750005  Biso 1.000000    Cd
   Cd   1.0     0.857419     0.343332     0.750005  Biso 1.000000    Cd
   Cd   1.0     0.857421     0.843341     0.750005  Biso 1.000000    Cd
   Cd   1.0     0.485940     0.344032     0.249999  Biso 1.000000    Cd
   Cd   1.0     0.485940     0.844041     0.249999  Biso 1.000000    Cd
   Cd   1.0     0.985938     0.344032     0.250000  Biso 1.000000    Cd
   Cd   1.0     0.985938     0.844040     0.249999  Biso 1.000000    Cd
   Cd   1.0     0.014085     0.155981     0.750010  Biso 1.000000    Cd
   Cd   1.0     0.014085     0.655990     0.750010  Biso 1.000000    Cd
   Cd   1.0     0.514083     0.155981     0.750010  Biso 1.000000    Cd
   Cd   1.0     0.514084     0.655989     0.750010  Biso 1.000000    Cd
   Cd   1.0     0.250010    -0.000001    -0.000001  Biso 1.000000    Cd
   Cd   1.0     0.250010     0.500008    -0.000001  Biso 1.000000    Cd
   Cd   1.0     0.750011    -0.000001     0.000000  Biso 1.000000    Cd
   Cd   1.0     0.750011     0.500008     0.000000  Biso 1.000000    Cd
   Cd   1.0     0.250011     0.000001     0.500005  Biso 1.000000    Cd
   Cd   1.0     0.250011     0.500010     0.500005  Biso 1.000000    Cd
   Cd   1.0     0.750012     0.000001     0.500004  Biso 1.000000    Cd
   Cd   1.0     0.750012     0.500010     0.500004  Biso 1.000000    Cd
