#======================================================================

# CRYSTAL DATA

#----------------------------------------------------------------------

data_VESTA_phase_1


_pd_phase_name                         MOF
_cell_length_a                         21.39800
_cell_length_b                         11.82700
_cell_length_c                         17.10600
_cell_angle_alpha                      90.09800
_cell_angle_beta                       90.00900
_cell_angle_gamma                      89.85100
_symmetry_space_group_name_H-M         "P 1"
_symmetry_Int_Tables_number            1

loop_
_symmetry_equiv_pos_as_xyz
   "x, y, z"

loop_
   _atom_site_label
   _atom_site_occupancy
   _atom_site_fract_x
   _atom_site_fract_y
   _atom_site_fract_z
   _atom_site_adp_type
   _atom_site_B_iso_or_equiv
   _atom_site_type_symbol
    H   1.0     0.282391     0.958337     0.630428  Biso 1.000000     H
    H   1.0     0.782036     0.957981     0.630395  Biso 1.000000     H
    H   1.0     0.218140     0.458391     0.130476  Biso 1.000000     H
    H   1.0     0.718110     0.458732     0.130564  Biso 1.000000     H
    H   1.0     0.052314     0.571861     0.464363  Biso 1.000000     H
    H   1.0     0.552114     0.571974     0.464026  Biso 1.000000     H
    H   1.0     0.055164     0.922446     0.836218  Biso 1.000000     H
    H   1.0     0.555109     0.922798     0.835868  Biso 1.000000     H
    H   1.0     0.203761     0.905956     0.521894  Biso 1.000000     H
    H   1.0     0.703595     0.905848     0.522010  Biso 1.000000     H
    H   1.0     0.035954     0.228061     0.972643  Biso 1.000000     H
    H   1.0     0.536522     0.227794     0.973113  Biso 1.000000     H
    H   1.0     0.028524     0.436017     0.430183  Biso 1.000000     H
    H   1.0     0.528310     0.436062     0.430018  Biso 1.000000     H
    H   1.0     0.154135     0.547222     0.107128  Biso 1.000000     H
    H   1.0     0.654282     0.547906     0.107177  Biso 1.000000     H
    H   1.0     0.377969     0.688247     0.108358  Biso 1.000000     H
    H   1.0     0.878518     0.688004     0.108825  Biso 1.000000     H
    H   1.0     0.281891     0.541272     0.869439  Biso 1.000000     H
    H   1.0     0.781856     0.541618     0.869525  Biso 1.000000     H
    H   1.0     0.296421     0.094174     0.477998  Biso 1.000000     H
    H   1.0     0.796256     0.094065     0.478117  Biso 1.000000     H
    H   1.0     0.052139     0.928199     0.036552  Biso 1.000000     H
    H   1.0     0.551998     0.928122     0.036784  Biso 1.000000     H
    H   1.0     0.121490     0.311990     0.891187  Biso 1.000000     H
    H   1.0     0.622037     0.311755     0.891653  Biso 1.000000     H
    H   1.0     0.448010     0.071882     0.963235  Biso 1.000000     H
    H   1.0     0.947869     0.071799     0.963464  Biso 1.000000     H
    H   1.0     0.139875     0.481294     0.739316  Biso 1.000000     H
    H   1.0     0.640120     0.481369     0.739350  Biso 1.000000     H
    H   1.0     0.378747     0.812897     0.389955  Biso 1.000000     H
    H   1.0     0.879298     0.813161     0.389725  Biso 1.000000     H
    H   1.0     0.345720     0.452101     0.892829  Biso 1.000000     H
    H   1.0     0.845865     0.452797     0.892873  Biso 1.000000     H
    H   1.0     0.359850     0.980763     0.239858  Biso 1.000000     H
    H   1.0     0.859902     0.981071     0.239662  Biso 1.000000     H
    H   1.0     0.346011     0.047267     0.606917  Biso 1.000000     H
    H   1.0     0.845910     0.046415     0.606937  Biso 1.000000     H
    H   1.0     0.217983     0.042031     0.369612  Biso 1.000000     H
    H   1.0     0.717633     0.041677     0.369578  Biso 1.000000     H
    H   1.0     0.359883     0.518629     0.260659  Biso 1.000000     H
    H   1.0     0.860132     0.518704     0.260689  Biso 1.000000     H
    H   1.0     0.027759     0.064198     0.070128  Biso 1.000000     H
    H   1.0     0.527597     0.064133     0.070271  Biso 1.000000     H
    H   1.0     0.120704     0.186833     0.610285  Biso 1.000000     H
    H   1.0     0.621258     0.187102     0.610051  Biso 1.000000     H
    H   1.0     0.315365     0.949118     0.487453  Biso 1.000000     H
    H   1.0     0.815154     0.948949     0.487407  Biso 1.000000     H
    H   1.0     0.315198     0.550305     0.000000  Biso 1.000000     H
    H   1.0     0.815307     0.550649     0.000000  Biso 1.000000     H
    H   1.0     0.471700     0.563942     0.569982  Biso 1.000000     H
    H   1.0     0.971484     0.563983     0.569820  Biso 1.000000     H
    H   1.0     0.203502     0.594313     0.978139  Biso 1.000000     H
    H   1.0     0.703652     0.594602     0.978164  Biso 1.000000     H
    H   1.0     0.444897     0.077201     0.164151  Biso 1.000000     H
    H   1.0     0.944839     0.077551     0.163794  Biso 1.000000     H
    H   1.0     0.140099     0.018926     0.760345  Biso 1.000000     H
    H   1.0     0.640155     0.019235     0.760158  Biso 1.000000     H
    H   1.0     0.296347     0.405408     0.021842  Biso 1.000000     H
    H   1.0     0.796504     0.405708     0.021866  Biso 1.000000     H
    H   1.0     0.447896     0.428031     0.535974  Biso 1.000000     H
    H   1.0     0.947693     0.428139     0.535640  Biso 1.000000     H
    H   1.0     0.184693     0.449374    -0.012433  Biso 1.000000     H
    H   1.0     0.684805     0.449703    -0.012351  Biso 1.000000     H
    H   1.0     0.472410     0.935871     0.929748  Biso 1.000000     H
    H   1.0     0.972248     0.935799     0.929888  Biso 1.000000     H
    H   1.0     0.035059     0.270845     0.528568  Biso 1.000000     H
    H   1.0     0.535645     0.271075     0.528267  Biso 1.000000     H
    H   1.0     0.463485     0.772211     0.026902  Biso 1.000000     H
    H   1.0     0.964056     0.771934     0.027373  Biso 1.000000     H
    H   1.0     0.445008     0.422164     0.336773  Biso 1.000000     H
    H   1.0     0.945161     0.422099     0.336917  Biso 1.000000     H
    H   1.0     0.154104     0.953613     0.393073  Biso 1.000000     H
    H   1.0     0.654006     0.952766     0.393089  Biso 1.000000     H
    H   1.0     0.054847     0.577902     0.663084  Biso 1.000000     H
    H   1.0     0.554999     0.577838     0.663229  Biso 1.000000     H
    H   1.0     0.464364     0.728929     0.471734  Biso 1.000000     H
    H   1.0     0.964946     0.729151     0.471440  Biso 1.000000     H
    H   1.0     0.184864     0.051073     0.512603  Biso 1.000000     H
    H   1.0     0.684652     0.050904     0.512553  Biso 1.000000     H
    H   1.0     0.127553     0.312600     0.109966  Biso 1.000000     H
    H   1.0     0.628633     0.312779     0.109691  Biso 1.000000     H
    H   1.0     0.389653     0.519148     0.739797  Biso 1.000000     H
    H   1.0     0.890572     0.519580     0.739902  Biso 1.000000     H
    H   1.0     0.286545     0.727637     0.526867  Biso 1.000000     H
    H   1.0     0.787272     0.728006     0.527079  Biso 1.000000     H
    H   1.0     0.469328     0.957873     0.369173  Biso 1.000000     H
    H   1.0     0.968936     0.957632     0.369333  Biso 1.000000     H
    H   1.0     0.468772     0.542442     0.130690  Biso 1.000000     H
    H   1.0     0.968574     0.542682     0.130536  Biso 1.000000     H
    H   1.0     0.434729     0.949454     0.511801  Biso 1.000000     H
    H   1.0     0.934968     0.948562     0.512139  Biso 1.000000     H
    H   1.0     0.197657     0.927592     0.964438  Biso 1.000000     H
    H   1.0     0.698374     0.927074     0.964079  Biso 1.000000     H
    H   1.0     0.031429     0.457315     0.869475  Biso 1.000000     H
    H   1.0     0.531231     0.457558     0.869331  Biso 1.000000     H
    H   1.0     0.195118     0.922945     0.163512  Biso 1.000000     H
    H   1.0     0.695708     0.922870     0.163258  Biso 1.000000     H
    H   1.0     0.212734     0.272008     0.472931  Biso 1.000000     H
    H   1.0     0.713464     0.272375     0.473137  Biso 1.000000     H
    H   1.0     0.371369     0.687234     0.890318  Biso 1.000000     H
    H   1.0     0.872452     0.687411     0.890048  Biso 1.000000     H
    H   1.0     0.046827     0.593494     0.021835  Biso 1.000000     H
    H   1.0     0.546511     0.594128     0.021566  Biso 1.000000     H
    H   1.0     0.031077     0.042358     0.630674  Biso 1.000000     H
    H   1.0     0.530723     0.042100     0.630861  Biso 1.000000     H
    H   1.0     0.434740     0.551094    -0.012146  Biso 1.000000     H
    H   1.0     0.934959     0.551932    -0.012378  Biso 1.000000     H
    H   1.0     0.046944     0.906162     0.478336  Biso 1.000000     H
    H   1.0     0.546646     0.905498     0.478699  Biso 1.000000     H
    H   1.0     0.221753     0.436417     0.570042  Biso 1.000000     H
    H   1.0     0.722427     0.436878     0.570438  Biso 1.000000     H
    H   1.0     0.126872     0.188419     0.391612  Biso 1.000000     H
    H   1.0     0.627770     0.188700     0.391569  Biso 1.000000     H
    H   1.0     0.389584     0.980722     0.760717  Biso 1.000000     H
    H   1.0     0.890391     0.981025     0.760542  Biso 1.000000     H
    H   1.0     0.301522     0.427129     0.463294  Biso 1.000000     H
    H   1.0     0.802204     0.427581     0.463682  Biso 1.000000     H
    H   1.0     0.065044     0.051423     0.487868  Biso 1.000000     H
    H   1.0     0.565315     0.050522     0.488235  Biso 1.000000     H
    H   1.0     0.453492     0.405876     0.978453  Biso 1.000000     H
    H   1.0     0.953175     0.406505     0.978174  Biso 1.000000     H
    H   1.0     0.304424     0.423063     0.664015  Biso 1.000000     H
    H   1.0     0.805144     0.423542     0.664346  Biso 1.000000     H
    H   1.0     0.278306     0.937056     0.070152  Biso 1.000000     H
    H   1.0     0.778899     0.936630     0.069819  Biso 1.000000     H
    H   1.0     0.109620     0.018976     0.239464  Biso 1.000000     H
    H   1.0     0.610428     0.019287     0.239289  Biso 1.000000     H
    H   1.0     0.065044     0.448067     0.000000  Biso 1.000000     H
    H   1.0     0.565262     0.448910     0.000000  Biso 1.000000     H
    H   1.0     0.194861     0.576462     0.335652  Biso 1.000000     H
    H   1.0     0.695583     0.576943     0.335984  Biso 1.000000     H
    H   1.0     0.404879     0.046096     0.391766  Biso 1.000000     H
    H   1.0     0.904241     0.045035     0.392385  Biso 1.000000     H
    H   1.0     0.213498     0.229056     0.028349  Biso 1.000000     H
    H   1.0     0.714403     0.228839     0.028008  Biso 1.000000     H
    H   1.0     0.304307     0.077150     0.836749  Biso 1.000000     H
    H   1.0     0.804896     0.077067     0.836493  Biso 1.000000     H
    H   1.0     0.109433     0.480418     0.260101  Biso 1.000000     H
    H   1.0     0.610354     0.480858     0.260206  Biso 1.000000     H
    H   1.0     0.301637     0.072953     0.035931  Biso 1.000000     H
    H   1.0     0.802353     0.072442     0.035567  Biso 1.000000     H
    H   1.0     0.221118     0.063403     0.930189  Biso 1.000000     H
    H   1.0     0.721707     0.062968     0.929854  Biso 1.000000     H
    H   1.0     0.197803     0.572432     0.536323  Biso 1.000000     H
    H   1.0     0.698485     0.572887     0.536705  Biso 1.000000     H
    H   1.0     0.404431     0.454875     0.107685  Biso 1.000000     H
    H   1.0     0.904073     0.455530     0.107277  Biso 1.000000     H
    H   1.0     0.277577     0.563137     0.429562  Biso 1.000000     H
    H   1.0     0.778255     0.563595     0.429960  Biso 1.000000     H
    H   1.0     0.095769     0.954946     0.607623  Biso 1.000000     H
    H   1.0     0.595157     0.953842     0.608267  Biso 1.000000     H
    H   1.0     0.372238     0.811309     0.608438  Biso 1.000000     H
    H   1.0     0.873133     0.811590     0.608402  Biso 1.000000     H
    H   1.0     0.095930     0.544467     0.892734  Biso 1.000000     H
    H   1.0     0.595568     0.545135     0.892334  Biso 1.000000     H
    H   1.0     0.453397     0.094480     0.521330  Biso 1.000000     H
    H   1.0     0.953067     0.093824     0.521672  Biso 1.000000     H
    H   1.0     0.285602     0.771187     0.972003  Biso 1.000000     H
    H   1.0     0.786510     0.770966     0.971665  Biso 1.000000     H
    C   1.0     0.012333     0.514038     0.458619  Biso 1.000000     C
    C   1.0     0.512152     0.514050     0.458535  Biso 1.000000     C
    C   1.0     0.395148     0.726735     0.380063  Biso 1.000000     C
    C   1.0     0.895651     0.726971     0.379861  Biso 1.000000     C
    C   1.0     0.105039     0.226135     0.880844  Biso 1.000000     C
    C   1.0     0.605484     0.225991     0.881171  Biso 1.000000     C
    C   1.0     0.487858     0.485954     0.541465  Biso 1.000000     C
    C   1.0     0.987675     0.485961     0.541385  Biso 1.000000     C
    C   1.0     0.057020     0.319888     0.575225  Biso 1.000000     C
    C   1.0     0.557521     0.320100     0.574998  Biso 1.000000     C
    C   1.0     0.295682     0.033555     0.596700  Biso 1.000000     C
    C   1.0     0.795542     0.033142     0.596745  Biso 1.000000     C
    C   1.0     0.384597     0.561855     0.307717  Biso 1.000000     C
    C   1.0     0.884917     0.561962     0.307674  Biso 1.000000     C
    C   1.0     0.441788     0.820893     0.074031  Biso 1.000000     C
    C   1.0     0.942226     0.820726     0.074349  Biso 1.000000     C
    C   1.0     0.115089     0.438036     0.692331  Biso 1.000000     C
    C   1.0     0.615408     0.438144     0.692290  Biso 1.000000     C
    C   1.0     0.488169     0.013898     0.958367  Biso 1.000000     C
    C   1.0     0.988035     0.013868     0.958422  Biso 1.000000     C
    C   1.0     0.057783     0.179270     0.925665  Biso 1.000000     C
    C   1.0     0.558219     0.179110     0.925985  Biso 1.000000     C
    C   1.0     0.384399     0.937898     0.192415  Biso 1.000000     C
    C   1.0     0.884551     0.938077     0.192356  Biso 1.000000     C
    C   1.0     0.237699     0.636707     0.130875  Biso 1.000000     C
    C   1.0     0.738032     0.636871     0.130978  Biso 1.000000     C
    C   1.0     0.068200     0.491048     0.649624  Biso 1.000000     C
    C   1.0     0.568482     0.491103     0.649605  Biso 1.000000     C
    C   1.0     0.115452     0.061920     0.807653  Biso 1.000000     C
    C   1.0     0.615606     0.062101     0.807600  Biso 1.000000     C
    C   1.0     0.442487     0.679903     0.425005  Biso 1.000000     C
    C   1.0     0.942985     0.680109     0.424781  Biso 1.000000     C
    C   1.0     0.283760     0.483578     0.990585  Biso 1.000000     C
    C   1.0     0.783891     0.483904     0.990653  Biso 1.000000     C
    C   1.0     0.204488     0.533572     0.096788  Biso 1.000000     C
    C   1.0     0.704614     0.533977     0.096844  Biso 1.000000     C
    C   1.0     0.261971     0.363132     0.869029  Biso 1.000000     C
    C   1.0     0.762303     0.363299     0.869133  Biso 1.000000     C
    C   1.0     0.104352     0.273025     0.620148  Biso 1.000000     C
    C   1.0     0.604858     0.273265     0.619943  Biso 1.000000     C
    C   1.0     0.038372     0.068103     0.910303  Biso 1.000000     C
    C   1.0     0.538620     0.068110     0.910393  Biso 1.000000     C
    C   1.0     0.431525     0.508898     0.350399  Biso 1.000000     C
    C   1.0     0.931807     0.508951     0.350379  Biso 1.000000     C
    C   1.0     0.283930     0.016089     0.509294  Biso 1.000000     C
    C   1.0     0.783750     0.015909     0.509322  Biso 1.000000     C
    C   1.0     0.204472     0.966876     0.403265  Biso 1.000000     C
    C   1.0     0.704336     0.966464     0.403307  Biso 1.000000     C
    C   1.0     0.461387     0.931892     0.089625  Biso 1.000000     C
    C   1.0     0.961636     0.931894     0.089711  Biso 1.000000     C
    C   1.0     0.068621     0.008938     0.850208  Biso 1.000000     C
    C   1.0     0.568729     0.009130     0.850095  Biso 1.000000     C
    C   1.0     0.431277     0.990870     0.149923  Biso 1.000000     C
    C   1.0     0.931383     0.991059     0.149804  Biso 1.000000     C
    C   1.0     0.461851     0.568387     0.410156  Biso 1.000000     C
    C   1.0     0.962206     0.568489     0.410050  Biso 1.000000     C
    C   1.0     0.295388     0.466029     0.903161  Biso 1.000000     C
    C   1.0     0.795512     0.466441     0.903214  Biso 1.000000     C
    C   1.0     0.011973     0.986130     0.041593  Biso 1.000000     C
    C   1.0     0.511839     0.986106     0.041652  Biso 1.000000     C
    C   1.0     0.394522     0.774011     0.118842  Biso 1.000000     C
    C   1.0     0.894969     0.773861     0.119168  Biso 1.000000     C
    C   1.0     0.037801     0.431510     0.589954  Biso 1.000000     C
    C   1.0     0.538158     0.431616     0.589846  Biso 1.000000     C
    C   1.0     0.216266     0.984112     0.490687  Biso 1.000000     C
    C   1.0     0.716087     0.983932     0.490713  Biso 1.000000     C
    C   1.0     0.216111     0.516113     0.009350  Biso 1.000000     C
    C   1.0     0.716242     0.516432     0.009419  Biso 1.000000     C
    C   1.0     0.237690     0.863555     0.368992  Biso 1.000000     C
    C   1.0     0.737887     0.863435     0.369094  Biso 1.000000     C
    C   1.0     0.262122     0.136573     0.630915  Biso 1.000000     C
    C   1.0     0.762318     0.136453     0.631023  Biso 1.000000     C
    C   1.0     0.365227     0.562033     0.692355  Biso 1.000000     C
    C   1.0     0.866088     0.562425     0.692489  Biso 1.000000     C
    C   1.0     0.033887     0.984316     0.509519  Biso 1.000000     C
    C   1.0     0.533797     0.983877     0.509747  Biso 1.000000     C
    C   1.0     0.318251     0.509222     0.649796  Biso 1.000000     C
    C   1.0     0.819003     0.509674     0.650084  Biso 1.000000     C
    C   1.0     0.033893     0.515418     0.990621  Biso 1.000000     C
    C   1.0     0.533805     0.515837     0.990461  Biso 1.000000     C
    C   1.0     0.191758     0.180080     0.075079  Biso 1.000000     C
    C   1.0     0.692626     0.179971     0.074764  Biso 1.000000     C
    C   1.0     0.045521     0.532241     0.903190  Biso 1.000000     C
    C   1.0     0.545200     0.532643     0.902964  Biso 1.000000     C
    C   1.0     0.143658     0.273973     0.381102  Biso 1.000000     C
    C   1.0     0.644523     0.274295     0.381149  Biso 1.000000     C
    C   1.0     0.211466     0.068854     0.090008  Biso 1.000000     C
    C   1.0     0.712197     0.068661     0.089674  Biso 1.000000     C
    C   1.0     0.455195     0.033038     0.402738  Biso 1.000000     C
    C   1.0     0.954648     0.032585     0.403022  Biso 1.000000     C
    C   1.0     0.012802     0.636108     0.869200  Biso 1.000000     C
    C   1.0     0.512240     0.636245     0.868904  Biso 1.000000     C
    C   1.0     0.307381     0.820051     0.925245  Biso 1.000000     C
    C   1.0     0.808251     0.819938     0.924933  Biso 1.000000     C
    C   1.0     0.308137     0.678982     0.573976  Biso 1.000000     C
    C   1.0     0.808894     0.679364     0.574175  Biso 1.000000     C
    C   1.0     0.191112     0.320647     0.425833  Biso 1.000000     C
    C   1.0     0.691872     0.321028     0.426027  Biso 1.000000     C
    C   1.0     0.354789     0.773209     0.880327  Biso 1.000000     C
    C   1.0     0.855764     0.773327     0.880076  Biso 1.000000     C
    C   1.0     0.317973     0.990612     0.850481  Biso 1.000000     C
    C   1.0     0.818667     0.990567     0.850187  Biso 1.000000     C
    C   1.0     0.487755     0.363753     0.131117  Biso 1.000000     C
    C   1.0     0.987201     0.363889     0.130810  Biso 1.000000     C
    C   1.0     0.181345     0.009445     0.149820  Biso 1.000000     C
    C   1.0     0.682040     0.009407     0.149526  Biso 1.000000     C
    C   1.0     0.237487     0.985743     0.958763  Biso 1.000000     C
    C   1.0     0.738150     0.985351     0.958417  Biso 1.000000     C
    C   1.0     0.288302     0.568179     0.589489  Biso 1.000000     C
    C   1.0     0.789020     0.568614     0.589795  Biso 1.000000     C
    C   1.0     0.261546     0.485463     0.458223  Biso 1.000000     C
    C   1.0     0.762223     0.485903     0.458597  Biso 1.000000     C
    C   1.0     0.045363     0.967403     0.596986  Biso 1.000000     C
    C   1.0     0.544845     0.966929     0.597293  Biso 1.000000     C
    C   1.0     0.210985     0.431395     0.410209  Biso 1.000000     C
    C   1.0     0.711706     0.431830     0.410513  Biso 1.000000     C
    C   1.0     0.466197     0.484166     0.009560  Biso 1.000000     C
    C   1.0     0.966109     0.484580     0.009390  Biso 1.000000     C
    C   1.0     0.261863     0.014674     0.041591  Biso 1.000000     C
    C   1.0     0.762525     0.014286     0.041244  Biso 1.000000     C
    C   1.0     0.355485     0.725713     0.618857  Biso 1.000000     C
    C   1.0     0.856347     0.726034     0.618909  Biso 1.000000     C
    C   1.0     0.181002     0.490331     0.349918  Biso 1.000000     C
    C   1.0     0.681757     0.490785     0.350205  Biso 1.000000     C
    C   1.0     0.237785     0.514109     0.541405  Biso 1.000000     C
    C   1.0     0.738460     0.514550     0.541778  Biso 1.000000     C
    C   1.0     0.144243     0.226684     0.119936  Biso 1.000000     C
    C   1.0     0.645216     0.226806     0.119682  Biso 1.000000     C
    C   1.0     0.454801     0.467360     0.097056  Biso 1.000000     C
    C   1.0     0.954482     0.467756     0.096821  Biso 1.000000     C
    C   1.0     0.287814     0.931363     0.910334  Biso 1.000000     C
    C   1.0     0.788546     0.931164     0.910001  Biso 1.000000     C
    C   1.0     0.364983     0.937658     0.807827  Biso 1.000000     C
    C   1.0     0.865795     0.937842     0.807605  Biso 1.000000     C
    C   1.0     0.466245     0.016099     0.490285  Biso 1.000000     C
    C   1.0     0.966124     0.015671     0.490489  Biso 1.000000     C
    C   1.0     0.012753     0.863685     0.630880  Biso 1.000000     C
    C   1.0     0.511705     0.863632     0.630990  Biso 1.000000     C
    C   1.0     0.488314     0.136352     0.369035  Biso 1.000000     C
    C   1.0     0.987253     0.136308     0.369129  Biso 1.000000     C
    C   1.0     0.134215     0.062164     0.192402  Biso 1.000000     C
    C   1.0     0.635028     0.062355     0.192180  Biso 1.000000     C
    C   1.0     0.133916     0.437576     0.307515  Biso 1.000000     C
    C   1.0     0.634780     0.437972     0.307648  Biso 1.000000     C
    N   1.0     0.366104     0.830780     0.177629  Biso 1.000000     N
    N   1.0     0.866419     0.830814     0.177773  Biso 1.000000     N
    N   1.0     0.133115     0.330403     0.678267  Biso 1.000000     N
    N   1.0     0.633532     0.330579     0.678162  Biso 1.000000     N
    N   1.0     0.133586     0.169182     0.822238  Biso 1.000000     N
    N   1.0     0.633900     0.169220     0.822383  Biso 1.000000     N
    N   1.0     0.366472     0.669419     0.321846  Biso 1.000000     N
    N   1.0     0.866888     0.669593     0.321741  Biso 1.000000     N
    N   1.0     0.383342     0.830313     0.822062  Biso 1.000000     N
    N   1.0     0.884294     0.830588     0.821872  Biso 1.000000     N
    N   1.0     0.115314     0.330727     0.322375  Biso 1.000000     N
    N   1.0     0.616244     0.331051     0.322371  Biso 1.000000     N
    N   1.0     0.115714     0.169417     0.178139  Biso 1.000000     N
    N   1.0     0.616664     0.169698     0.177947  Biso 1.000000     N
    N   1.0     0.383762     0.668955     0.677635  Biso 1.000000     N
    N   1.0     0.884690     0.669276     0.677633  Biso 1.000000     N
    O   1.0     0.240185     0.772604     0.405526  Biso 1.000000     O
    O   1.0     0.741430     0.773034     0.406162  Biso 1.000000     O
    O   1.0     0.261277     0.879728     0.299319  Biso 1.000000     O
    O   1.0     0.760597     0.879247     0.298933  Biso 1.000000     O
    O   1.0     0.258558     0.272821     0.906177  Biso 1.000000     O
    O   1.0     0.759799     0.272553     0.905883  Biso 1.000000     O
    O   1.0     0.239203     0.378978     0.798869  Biso 1.000000     O
    O   1.0     0.738712     0.379437     0.799425  Biso 1.000000     O
    O   1.0     0.239409     0.120753     0.701074  Biso 1.000000     O
    O   1.0     0.738727     0.120267     0.700692  Biso 1.000000     O
    O   1.0     0.240206     0.727457     0.094131  Biso 1.000000     O
    O   1.0     0.741445     0.727184     0.093833  Biso 1.000000     O
    O   1.0     0.258574     0.226975     0.593848  Biso 1.000000     O
    O   1.0     0.759821     0.227410     0.594496  Biso 1.000000     O
    O   1.0     0.261291     0.620561     0.200582  Biso 1.000000     O
    O   1.0     0.760801     0.621019     0.201137  Biso 1.000000     O
    O   1.0     0.488128     0.879596     0.700746  Biso 1.000000     O
    O   1.0     0.989372     0.879461     0.700767  Biso 1.000000     O
    O   1.0     0.489523     0.620716     0.798659  Biso 1.000000     O
    O   1.0     0.989403     0.620362     0.799333  Biso 1.000000     O
    O   1.0     0.010601     0.379635     0.200677  Biso 1.000000     O
    O   1.0     0.510454     0.379271     0.201372  Biso 1.000000     O
    O   1.0     0.010506     0.772941     0.593895  Biso 1.000000     O
    O   1.0     0.509261     0.772936     0.593955  Biso 1.000000     O
    O   1.0     0.490819     0.273230     0.093923  Biso 1.000000     O
    O   1.0     0.989490     0.273043     0.093926  Biso 1.000000     O
    O   1.0     0.010513     0.726954     0.906084  Biso 1.000000     O
    O   1.0     0.509186     0.726774     0.906092  Biso 1.000000     O
    O   1.0     0.490747     0.227052     0.406066  Biso 1.000000     O
    O   1.0     0.989498     0.227051     0.406115  Biso 1.000000     O
    O   1.0     0.010633     0.120536     0.299240  Biso 1.000000     O
    O   1.0     0.511885     0.120397     0.299275  Biso 1.000000     O
   Zn   1.0     0.197332     0.249889     0.750063  Biso 1.000000    Zn
   Zn   1.0     0.697762     0.249977     0.750110  Biso 1.000000    Zn
   Zn   1.0     0.302240     0.750020     0.249899  Biso 1.000000    Zn
   Zn   1.0     0.802672     0.750107     0.249945  Biso 1.000000    Zn
   Zn   1.0     0.447654     0.749854     0.749950  Biso 1.000000    Zn
   Zn   1.0     0.948689     0.749989     0.749929  Biso 1.000000    Zn
   Zn   1.0     0.051316     0.250009     0.250081  Biso 1.000000    Zn
   Zn   1.0     0.552348     0.250144     0.250061  Biso 1.000000    Zn
