#======================================================================

# CRYSTAL DATA

#----------------------------------------------------------------------

data_VESTA_phase_1


_pd_phase_name                         MOF
_cell_length_a                         13.21300
_cell_length_b                         12.84100
_cell_length_c                         23.01400
_cell_angle_alpha                      90.03600
_cell_angle_beta                       90.01100
_cell_angle_gamma                      75.84500
_symmetry_space_group_name_H-M         "P 1"
_symmetry_Int_Tables_number            1

loop_
_symmetry_equiv_pos_as_xyz
   "x, y, z"

loop_
   _atom_site_label
   _atom_site_occupancy
   _atom_site_fract_x
   _atom_site_fract_y
   _atom_site_fract_z
   _atom_site_adp_type
   _atom_site_B_iso_or_equiv
   _atom_site_type_symbol
    C   1.0    -0.006369     0.442669     0.695152  Biso 1.000000     C
    C   1.0     0.494081     0.442671     0.695060  Biso 1.000000     C
    C   1.0     0.000793     0.440927     0.759161  Biso 1.000000     C
    C   1.0     0.500680     0.440925     0.759102  Biso 1.000000     C
    C   1.0    -0.000745     0.555765     0.759195  Biso 1.000000     C
    C   1.0     0.499657     0.555662     0.759192  Biso 1.000000     C
    C   1.0     0.506113     0.554298     0.695165  Biso 1.000000     C
    C   1.0     0.000000     0.554029     0.695179  Biso 1.000000     C
    C   1.0     0.427700     0.207974     0.501100  Biso 1.000000     C
    C   1.0     0.929731     0.207749     0.501207  Biso 1.000000     C
    C   1.0     0.249814     0.056431     0.759169  Biso 1.000000     C
    C   1.0     0.748833     0.056594     0.759106  Biso 1.000000     C
    C   1.0     0.256405     0.054482     0.695141  Biso 1.000000     C
    C   1.0     0.755305     0.054778     0.695070  Biso 1.000000     C
    C   1.0     0.244506     0.942786     0.695258  Biso 1.000000     C
    C   1.0     0.743429     0.943092     0.695189  Biso 1.000000     C
    C   1.0     0.250975    -0.058351     0.759300  Biso 1.000000     C
    C   1.0     0.749914    -0.058146     0.759217  Biso 1.000000     C
    C   1.0     0.178867     0.207660     0.001397  Biso 1.000000     C
    C   1.0     0.680717     0.207641     0.001289  Biso 1.000000     C
    C   1.0     0.251160     0.444009     0.259213  Biso 1.000000     C
    C   1.0     0.751957     0.443640     0.259203  Biso 1.000000     C
    C   1.0     0.244735     0.445108     0.195180  Biso 1.000000     C
    C   1.0     0.744534     0.445138     0.195195  Biso 1.000000     C
    C   1.0     0.256647     0.556821     0.195063  Biso 1.000000     C
    C   1.0     0.755727     0.557038     0.195062  Biso 1.000000     C
    C   1.0     0.250056     0.558760     0.259103  Biso 1.000000     C
    C   1.0     0.749665     0.558676     0.259104  Biso 1.000000     C
    C   1.0     0.319737     0.291553     0.501218  Biso 1.000000     C
    C   1.0     0.821527     0.290850     0.501022  Biso 1.000000     C
    C   1.0     0.508000     0.055520     0.195312  Biso 1.000000     C
    C   1.0     0.000000     0.056075     0.195137  Biso 1.000000     C
    C   1.0     0.500196     0.057543     0.259314  Biso 1.000000     C
    C   1.0     0.000000     0.057580     0.259177  Biso 1.000000     C
    C   1.0     0.500846     0.942854     0.259263  Biso 1.000000     C
    C   1.0     0.000000     0.943014     0.259154  Biso 1.000000     C
    C   1.0    -0.005964    -0.055123     0.195167  Biso 1.000000     C
    C   1.0     0.494937    -0.055648     0.195227  Biso 1.000000     C
    C   1.0     0.070571     0.290619     0.000000  Biso 1.000000     C
    C   1.0     0.572400     0.290558     0.000000  Biso 1.000000     C
    C   1.0     0.506437     0.556092     0.307392  Biso 1.000000     C
    C   1.0     0.000000     0.556598     0.307419  Biso 1.000000     C
    C   1.0     0.500119     0.557488     0.243355  Biso 1.000000     C
    C   1.0     0.999263     0.558600     0.243422  Biso 1.000000     C
    C   1.0     0.501636     0.442597     0.243326  Biso 1.000000     C
    C   1.0     0.000000     0.443612     0.243294  Biso 1.000000     C
    C   1.0    -0.004364     0.444679     0.307344  Biso 1.000000     C
    C   1.0     0.494682     0.444325     0.307362  Biso 1.000000     C
    C   1.0     0.070640     0.791847     0.501516  Biso 1.000000     C
    C   1.0     0.572314     0.791914     0.501406  Biso 1.000000     C
    C   1.0     0.251585     0.942849     0.243294  Biso 1.000000     C
    C   1.0     0.750721     0.943123     0.243258  Biso 1.000000     C
    C   1.0     0.244976     0.944649     0.307341  Biso 1.000000     C
    C   1.0     0.744211     0.944859     0.307290  Biso 1.000000     C
    C   1.0     0.256898     0.056254     0.307271  Biso 1.000000     C
    C   1.0     0.757961     0.055839     0.307288  Biso 1.000000     C
    C   1.0     0.250511     0.000000     0.243253  Biso 1.000000     C
    C   1.0     0.751357     0.000000     0.243256  Biso 1.000000     C
    C   1.0     0.322625     0.791832     0.000000  Biso 1.000000     C
    C   1.0     0.821183     0.792214     0.000000  Biso 1.000000     C
    C   1.0     0.249988     0.555936     0.743330  Biso 1.000000     C
    C   1.0     0.749113     0.555833     0.743302  Biso 1.000000     C
    C   1.0     0.256464     0.554668     0.807370  Biso 1.000000     C
    C   1.0     0.755528     0.554697     0.807335  Biso 1.000000     C
    C   1.0     0.244372     0.443041     0.807473  Biso 1.000000     C
    C   1.0     0.743538     0.443026     0.807437  Biso 1.000000     C
    C   1.0     0.250980     0.441216     0.743444  Biso 1.000000     C
    C   1.0     0.750120     0.441116     0.743405  Biso 1.000000     C
    C   1.0     0.178789     0.708575     0.501392  Biso 1.000000     C
    C   1.0     0.680284     0.708336     0.501268  Biso 1.000000     C
    C   1.0    -0.006408     0.943385     0.807326  Biso 1.000000     C
    C   1.0     0.494117     0.943083     0.807253  Biso 1.000000     C
    C   1.0     0.000532     0.941757     0.743314  Biso 1.000000     C
    C   1.0     0.500507     0.941799     0.743222  Biso 1.000000     C
    C   1.0    -0.001048     0.056608     0.743356  Biso 1.000000     C
    C   1.0     0.499285     0.056607     0.743353  Biso 1.000000     C
    C   1.0     0.505920     0.000000     0.807395  Biso 1.000000     C
    C   1.0     0.000000     0.000000     0.807369  Biso 1.000000     C
    C   1.0     0.429355     0.706448     0.001239  Biso 1.000000     C
    C   1.0     0.929441     0.709178     0.001129  Biso 1.000000     C
    O   1.0    -0.021986     0.377567     0.657298  Biso 1.000000     O
    O   1.0     0.479483     0.377264     0.657110  Biso 1.000000     O
    O   1.0     0.008059     0.369139     0.797470  Biso 1.000000     O
    O   1.0     0.506963     0.369252     0.797401  Biso 1.000000     O
    O   1.0    -0.008070     0.627552     0.797561  Biso 1.000000     O
    O   1.0     0.493304     0.627189     0.797616  Biso 1.000000     O
    O   1.0     0.520468     0.620012     0.657347  Biso 1.000000     O
    O   1.0     0.000000     0.619147     0.657348  Biso 1.000000     O
    O   1.0     0.466923     0.177497     0.550281  Biso 1.000000     O
    O   1.0     0.968613     0.177541     0.550491  Biso 1.000000     O
    O   1.0     0.466903     0.177855     0.451860  Biso 1.000000     O
    O   1.0     0.969270     0.177768     0.452007  Biso 1.000000     O
    O   1.0     0.243707     0.128264     0.797409  Biso 1.000000     O
    O   1.0     0.742409     0.128400     0.797384  Biso 1.000000     O
    O   1.0     0.271073     0.119889     0.657245  Biso 1.000000     O
    O   1.0     0.769529     0.120289     0.657129  Biso 1.000000     O
    O   1.0     0.230428     0.876762     0.657494  Biso 1.000000     O
    O   1.0     0.729042     0.877266     0.657406  Biso 1.000000     O
    O   1.0     0.257652     0.870165     0.797716  Biso 1.000000     O
    O   1.0     0.756086     0.870438     0.797639  Biso 1.000000     O
    O   1.0     0.218125     0.177452     0.952192  Biso 1.000000     O
    O   1.0     0.719695     0.177528     0.952010  Biso 1.000000     O
    O   1.0     0.218234     0.177808     0.050624  Biso 1.000000     O
    O   1.0     0.720155     0.177719     0.050507  Biso 1.000000     O
    O   1.0     0.257621     0.372583     0.297652  Biso 1.000000     O
    O   1.0     0.759708     0.371942     0.297597  Biso 1.000000     O
    O   1.0     0.230607     0.379084     0.157429  Biso 1.000000     O
    O   1.0     0.729895     0.379439     0.157404  Biso 1.000000     O
    O   1.0     0.271231     0.622246     0.157165  Biso 1.000000     O
    O   1.0     0.769445     0.622717     0.157084  Biso 1.000000     O
    O   1.0     0.243887     0.630551     0.297368  Biso 1.000000     O
    O   1.0     0.742661     0.630542     0.297397  Biso 1.000000     O
    O   1.0     0.280935     0.322671     0.452014  Biso 1.000000     O
    O   1.0     0.782745     0.321297     0.451742  Biso 1.000000     O
    O   1.0     0.280421     0.320934     0.550537  Biso 1.000000     O
    O   1.0     0.781856     0.320567     0.550225  Biso 1.000000     O
    O   1.0     0.524104     0.120341     0.157462  Biso 1.000000     O
    O   1.0     0.000000     0.121335     0.157248  Biso 1.000000     O
    O   1.0     0.493236     0.129339     0.297624  Biso 1.000000     O
    O   1.0     0.995470     0.129130     0.297542  Biso 1.000000     O
    O   1.0     0.506749     0.871238     0.297553  Biso 1.000000     O
    O   1.0     0.000000     0.871299     0.297468  Biso 1.000000     O
    O   1.0    -0.022029     0.879913     0.157353  Biso 1.000000     O
    O   1.0     0.480125     0.879086     0.157240  Biso 1.000000     O
    O   1.0     0.031512     0.320981     0.050621  Biso 1.000000     O
    O   1.0     0.533345     0.320699     0.050706  Biso 1.000000     O
    O   1.0     0.031295     0.320361     0.952110  Biso 1.000000     O
    O   1.0     0.532855     0.320441     0.952260  Biso 1.000000     O
    O   1.0     0.520551     0.621969     0.345225  Biso 1.000000     O
    O   1.0     0.000000     0.622016     0.345238  Biso 1.000000     O
    O   1.0     0.493497     0.629215     0.205057  Biso 1.000000     O
    O   1.0     0.991463     0.630592     0.205175  Biso 1.000000     O
    O   1.0     0.508486     0.370768     0.205023  Biso 1.000000     O
    O   1.0     0.000000     0.372059     0.204837  Biso 1.000000     O
    O   1.0    -0.017946     0.378548     0.345120  Biso 1.000000     O
    O   1.0     0.480012     0.378709     0.345156  Biso 1.000000     O
    O   1.0     0.031517     0.822253     0.452291  Biso 1.000000     O
    O   1.0     0.533081     0.822423     0.452230  Biso 1.000000     O
    O   1.0     0.031539     0.821740     0.550825  Biso 1.000000     O
    O   1.0     0.533105     0.821990     0.550650  Biso 1.000000     O
    O   1.0     0.257954     0.871128     0.204987  Biso 1.000000     O
    O   1.0     0.755997     0.871527     0.204962  Biso 1.000000     O
    O   1.0     0.230479     0.879311     0.345313  Biso 1.000000     O
    O   1.0     0.728777     0.879798     0.345170  Biso 1.000000     O
    O   1.0     0.271141     0.121978     0.345154  Biso 1.000000     O
    O   1.0     0.773540     0.120934     0.345162  Biso 1.000000     O
    O   1.0     0.244186     0.129206     0.204902  Biso 1.000000     O
    O   1.0     0.746090     0.128990     0.204960  Biso 1.000000     O
    O   1.0     0.284019     0.822968     0.050448  Biso 1.000000     O
    O   1.0     0.781908     0.822498     0.050252  Biso 1.000000     O
    O   1.0     0.283934     0.822622     0.951980  Biso 1.000000     O
    O   1.0     0.781906     0.822085     0.951812  Biso 1.000000     O
    O   1.0     0.243904     0.627315     0.704896  Biso 1.000000     O
    O   1.0     0.742562     0.627293     0.704874  Biso 1.000000     O
    O   1.0     0.271045     0.620392     0.845164  Biso 1.000000     O
    O   1.0     0.769600     0.620688     0.845116  Biso 1.000000     O
    O   1.0     0.229985     0.377566     0.845397  Biso 1.000000     O
    O   1.0     0.728809     0.377674     0.845333  Biso 1.000000     O
    O   1.0     0.257489     0.369398     0.705159  Biso 1.000000     O
    O   1.0     0.756111     0.369371     0.705125  Biso 1.000000     O
    O   1.0     0.217839     0.677516     0.550539  Biso 1.000000     O
    O   1.0     0.719083     0.677123     0.550459  Biso 1.000000     O
    O   1.0     0.218250     0.679176     0.452119  Biso 1.000000     O
    O   1.0     0.719556     0.678952     0.451938  Biso 1.000000     O
    O   1.0    -0.021739     0.878118     0.845129  Biso 1.000000     O
    O   1.0     0.479998     0.877193     0.845040  Biso 1.000000     O
    O   1.0     0.007721     0.869973     0.704955  Biso 1.000000     O
    O   1.0     0.506972     0.870250     0.704804  Biso 1.000000     O
    O   1.0    -0.008406     0.128458     0.705074  Biso 1.000000     O
    O   1.0     0.492921     0.128378     0.705108  Biso 1.000000     O
    O   1.0     0.520426     0.120246     0.845346  Biso 1.000000     O
    O   1.0     0.000000     0.119935     0.845210  Biso 1.000000     O
    O   1.0     0.467801     0.675244     0.951988  Biso 1.000000     O
    O   1.0     0.968513     0.678654     0.951909  Biso 1.000000     O
    O   1.0     0.468132     0.675785     0.050492  Biso 1.000000     O
    O   1.0     0.968691     0.679524     0.050413  Biso 1.000000     O
   La   1.0     0.374765     0.248841     0.639363  Biso 1.000000    La
   La   1.0     0.874020     0.248820     0.639323  Biso 1.000000    La
   La   1.0     0.125652     0.248816     0.863187  Biso 1.000000    La
   La   1.0     0.624899     0.248811     0.863190  Biso 1.000000    La
   La   1.0     0.374896     0.250870     0.362993  Biso 1.000000    La
   La   1.0     0.877248     0.250217     0.362920  Biso 1.000000    La
   La   1.0     0.126038     0.250432     0.139569  Biso 1.000000    La
   La   1.0     0.627130     0.249715     0.139556  Biso 1.000000    La
   La   1.0     0.125808     0.751023     0.363232  Biso 1.000000    La
   La   1.0     0.624997     0.750764     0.363129  Biso 1.000000    La
   La   1.0     0.376143     0.750234     0.139426  Biso 1.000000    La
   La   1.0     0.874266     0.751018     0.139316  Biso 1.000000    La
   La   1.0     0.125414     0.748623     0.639626  Biso 1.000000    La
   La   1.0     0.624956     0.748560     0.639505  Biso 1.000000    La
   La   1.0     0.375699     0.748730     0.863012  Biso 1.000000    La
   La   1.0     0.874340     0.749173     0.862897  Biso 1.000000    La
