#======================================================================

# CRYSTAL DATA

#----------------------------------------------------------------------

data_VESTA_phase_1


_pd_phase_name                         MOF
_cell_length_a                         19.66300
_cell_length_b                         19.67300
_cell_length_c                         31.91500
_cell_angle_alpha                      106.19300
_cell_angle_beta                       106.04800
_cell_angle_gamma                      93.07900
_symmetry_space_group_name_H-M         "P 1"
_symmetry_Int_Tables_number            1

loop_
_symmetry_equiv_pos_as_xyz
   "x, y, z"

loop_
   _atom_site_label
   _atom_site_occupancy
   _atom_site_fract_x
   _atom_site_fract_y
   _atom_site_fract_z
   _atom_site_adp_type
   _atom_site_B_iso_or_equiv
   _atom_site_type_symbol
    H   1.0     0.509012     0.389338     0.705658  Biso 1.000000     H
    H   1.0     0.417289     0.425665     0.743965  Biso 1.000000     H
    H   1.0     0.316340     0.514927     0.637149  Biso 1.000000     H
    H   1.0     0.407041     0.475529     0.598213  Biso 1.000000     H
    H   1.0     0.389304     0.528977     0.784783  Biso 1.000000     H
    H   1.0     0.176080     0.562413     0.787095  Biso 1.000000     H
    H   1.0     0.217325     0.475290     0.658313  Biso 1.000000     H
    H   1.0     0.372955     0.486933     0.847170  Biso 1.000000     H
    H   1.0     0.414572     0.525633     0.931521  Biso 1.000000     H
    H   1.0     0.301445     0.707431     0.934804  Biso 1.000000     H
    H   1.0     0.257491     0.667445     0.849507  Biso 1.000000     H
    H   1.0     0.106527     0.411368     0.645727  Biso 1.000000     H
    H   1.0     0.975513     0.396986     0.608464  Biso 1.000000     H
    H   1.0     0.964206     0.596689     0.702886  Biso 1.000000     H
    H   1.0     0.095462     0.612646     0.739877  Biso 1.000000     H
    H   1.0     0.543387     0.608000     0.525047  Biso 1.000000     H
    H   1.0     0.525769     0.700412     0.486135  Biso 1.000000     H
    H   1.0     0.719578     0.828743     0.583723  Biso 1.000000     H
    H   1.0     0.736439     0.735199     0.622892  Biso 1.000000     H
    H   1.0     0.573744     0.744231     0.440234  Biso 1.000000     H
    H   1.0     0.604351     0.960730     0.437726  Biso 1.000000     H
    H   1.0     0.653190     0.916759     0.566779  Biso 1.000000     H
    H   1.0     0.708250     0.042079     0.482444  Biso 1.000000     H
    H   1.0     0.739449     0.173464     0.520376  Biso 1.000000     H
    H   1.0     0.633701     0.157459     0.619091  Biso 1.000000     H
    H   1.0     0.601379     0.026440     0.581186  Biso 1.000000     H
    H   1.0     0.462952     0.762873     0.376624  Biso 1.000000     H
    H   1.0     0.422927     0.723671     0.291652  Biso 1.000000     H
    H   1.0     0.616727     0.836066     0.291944  Biso 1.000000     H
    H   1.0     0.655298     0.879859     0.377373  Biso 1.000000     H
    H   1.0     0.389467     0.509226     0.205999  Biso 1.000000     H
    H   1.0     0.425761     0.417427     0.244047  Biso 1.000000     H
    H   1.0     0.514821     0.316416     0.136841  Biso 1.000000     H
    H   1.0     0.475454     0.407188     0.098159  Biso 1.000000     H
    H   1.0     0.529184     0.389599     0.284600  Biso 1.000000     H
    H   1.0     0.562643     0.176405     0.286675  Biso 1.000000     H
    H   1.0     0.475293     0.217353     0.158029  Biso 1.000000     H
    H   1.0     0.487303     0.373358     0.347179  Biso 1.000000     H
    H   1.0     0.526024     0.414891     0.431524  Biso 1.000000     H
    H   1.0     0.707783     0.301745     0.434242  Biso 1.000000     H
    H   1.0     0.667761     0.257877     0.348942  Biso 1.000000     H
    H   1.0     0.411528     0.106422     0.145464  Biso 1.000000     H
    H   1.0     0.397090     0.975230     0.108395  Biso 1.000000     H
    H   1.0     0.596754     0.964394     0.202645  Biso 1.000000     H
    H   1.0     0.612798     0.095822     0.239422  Biso 1.000000     H
    H   1.0     0.607688     0.543606     0.024744  Biso 1.000000     H
    H   1.0     0.700099     0.525860     0.985686  Biso 1.000000     H
    H   1.0     0.828809     0.719304     0.083632  Biso 1.000000     H
    H   1.0     0.735224     0.736318     0.122928  Biso 1.000000     H
    H   1.0     0.744347     0.573929     0.939942  Biso 1.000000     H
    H   1.0     0.961014     0.603773     0.937396  Biso 1.000000     H
    H   1.0     0.916664     0.652434     0.066473  Biso 1.000000     H
    H   1.0     0.042591     0.707546     0.982466  Biso 1.000000     H
    H   1.0     0.173839     0.738870     0.020665  Biso 1.000000     H
    H   1.0     0.156910     0.632465     0.118771  Biso 1.000000     H
    H   1.0     0.026038     0.600020     0.080589  Biso 1.000000     H
    H   1.0     0.762852     0.463003     0.876266  Biso 1.000000     H
    H   1.0     0.723355     0.423136     0.791292  Biso 1.000000     H
    H   1.0     0.836230     0.616693     0.791715  Biso 1.000000     H
    H   1.0     0.880328     0.655101     0.877135  Biso 1.000000     H
    H   1.0     0.610502     0.490749     0.794003  Biso 1.000000     H
    H   1.0     0.574205     0.582547     0.755955  Biso 1.000000     H
    H   1.0     0.485144     0.683555     0.863160  Biso 1.000000     H
    H   1.0     0.524513     0.592785     0.901843  Biso 1.000000     H
    H   1.0     0.470779     0.610374     0.715402  Biso 1.000000     H
    H   1.0     0.437320     0.823568     0.713327  Biso 1.000000     H
    H   1.0     0.524671     0.782619     0.841972  Biso 1.000000     H
    H   1.0     0.512662     0.626616     0.652824  Biso 1.000000     H
    H   1.0     0.473940     0.585082     0.568478  Biso 1.000000     H
    H   1.0     0.292180     0.698225     0.565760  Biso 1.000000     H
    H   1.0     0.332201     0.742094     0.651060  Biso 1.000000     H
    H   1.0     0.588437     0.893550     0.854537  Biso 1.000000     H
    H   1.0     0.602877     0.024742     0.891607  Biso 1.000000     H
    H   1.0     0.403214     0.035580     0.797357  Biso 1.000000     H
    H   1.0     0.387169     0.904153     0.760580  Biso 1.000000     H
    H   1.0     0.392282     0.456367     0.975259  Biso 1.000000     H
    H   1.0     0.299870     0.474112     0.014316  Biso 1.000000     H
    H   1.0     0.171162     0.280667     0.916371  Biso 1.000000     H
    H   1.0     0.264748     0.263653     0.877076  Biso 1.000000     H
    H   1.0     0.255622     0.426044     0.060060  Biso 1.000000     H
    H   1.0     0.038954     0.396199     0.062605  Biso 1.000000     H
    H   1.0     0.083307     0.347536     0.933528  Biso 1.000000     H
    H   1.0     0.957378     0.292426     0.017536  Biso 1.000000     H
    H   1.0     0.826129     0.261102     0.979337  Biso 1.000000     H
    H   1.0     0.843060     0.367503     0.881228  Biso 1.000000     H
    H   1.0     0.973932     0.399948     0.919411  Biso 1.000000     H
    H   1.0     0.237118     0.536969     0.123737  Biso 1.000000     H
    H   1.0     0.276614     0.576835     0.208711  Biso 1.000000     H
    H   1.0     0.163734     0.383279     0.208286  Biso 1.000000     H
    H   1.0     0.119637     0.344873     0.122866  Biso 1.000000     H
    H   1.0     0.490952     0.610634     0.294343  Biso 1.000000     H
    H   1.0     0.582675     0.574306     0.256037  Biso 1.000000     H
    H   1.0     0.683623     0.485045     0.362852  Biso 1.000000     H
    H   1.0     0.592922     0.524444     0.401789  Biso 1.000000     H
    H   1.0     0.610658     0.470993     0.215219  Biso 1.000000     H
    H   1.0     0.823883     0.437556     0.212907  Biso 1.000000     H
    H   1.0     0.782637     0.524680     0.341688  Biso 1.000000     H
    H   1.0     0.627011     0.513038     0.152831  Biso 1.000000     H
    H   1.0     0.585397     0.474340     0.068480  Biso 1.000000     H
    H   1.0     0.698521     0.292540     0.065199  Biso 1.000000     H
    H   1.0     0.742471     0.332524     0.150495  Biso 1.000000     H
    H   1.0     0.893434     0.588604     0.354275  Biso 1.000000     H
    H   1.0     0.024449     0.602987     0.391538  Biso 1.000000     H
    H   1.0     0.035758     0.403284     0.297116  Biso 1.000000     H
    H   1.0     0.904502     0.387326     0.260125  Biso 1.000000     H
    H   1.0     0.456575     0.391973     0.474954  Biso 1.000000     H
    H   1.0     0.474195     0.299561     0.513866  Biso 1.000000     H
    H   1.0     0.280386     0.171229     0.416278  Biso 1.000000     H
    H   1.0     0.263524     0.264774     0.377110  Biso 1.000000     H
    H   1.0     0.426221     0.255742     0.559767  Biso 1.000000     H
    H   1.0     0.395616     0.039243     0.562275  Biso 1.000000     H
    H   1.0     0.346774     0.083213     0.433222  Biso 1.000000     H
    H   1.0     0.291716     0.957894     0.517559  Biso 1.000000     H
    H   1.0     0.260518     0.826509     0.479627  Biso 1.000000     H
    H   1.0     0.366263     0.842512     0.380911  Biso 1.000000     H
    H   1.0     0.398584     0.973532     0.418815  Biso 1.000000     H
    H   1.0     0.537014     0.237100     0.623376  Biso 1.000000     H
    H   1.0     0.577040     0.276305     0.708349  Biso 1.000000     H
    H   1.0     0.383242     0.163910     0.708059  Biso 1.000000     H
    H   1.0     0.344670     0.120114     0.622630  Biso 1.000000     H
    C   1.0     0.523180     0.413227     0.629555  Biso 1.000000     C
    C   1.0     0.463970     0.430248     0.649616  Biso 1.000000     C
    C   1.0     0.466282     0.416344     0.690763  Biso 1.000000     C
    C   1.0     0.415116     0.437382     0.712242  Biso 1.000000     C
    C   1.0     0.360388     0.473482     0.693572  Biso 1.000000     C
    C   1.0     0.357434     0.485815     0.651774  Biso 1.000000     C
    C   1.0     0.408448     0.464307     0.629941  Biso 1.000000     C
    C   1.0     0.308935     0.498650     0.718577  Biso 1.000000     C
    C   1.0     0.332757     0.524939     0.766577  Biso 1.000000     C
    C   1.0     0.285684     0.549060     0.791562  Biso 1.000000     C
    C   1.0     0.213589     0.546723     0.767784  Biso 1.000000     C
    C   1.0     0.187996     0.519693     0.719772  Biso 1.000000     C
    C   1.0     0.236462     0.496344     0.695582  Biso 1.000000     C
    C   1.0     0.311751     0.574117     0.842215  Biso 1.000000     C
    C   1.0     0.357182     0.535494     0.866132  Biso 1.000000     C
    C   1.0     0.380590     0.557084     0.913718  Biso 1.000000     C
    C   1.0     0.360304     0.619030     0.938737  Biso 1.000000     C
    C   1.0     0.316252     0.658875     0.915187  Biso 1.000000     C
    C   1.0     0.291676     0.636190     0.867560  Biso 1.000000     C
    C   1.0     0.110661     0.512869     0.695788  Biso 1.000000     C
    C   1.0     0.075827     0.452906     0.657907  Biso 1.000000     C
    C   1.0     0.002376     0.444323     0.637072  Biso 1.000000     C
    C   1.0     0.961495     0.495747     0.653477  Biso 1.000000     C
    C   1.0    -0.003981     0.556561     0.690544  Biso 1.000000     C
    C   1.0     0.069362     0.564901     0.711302  Biso 1.000000     C
    C   1.0     0.652417     0.606590     0.597339  Biso 1.000000     C
    C   1.0     0.641127     0.665493     0.576489  Biso 1.000000     C
    C   1.0     0.581760     0.656477     0.537942  Biso 1.000000     C
    C   1.0     0.572184     0.708614     0.516032  Biso 1.000000     C
    C   1.0     0.621524     0.771450     0.531962  Biso 1.000000     C
    C   1.0     0.680131     0.780871     0.571274  Biso 1.000000     C
    C   1.0     0.690095     0.728542     0.593190  Biso 1.000000     C
    C   1.0     0.613655     0.824482     0.506613  Biso 1.000000     C
    C   1.0     0.588218     0.801236     0.458534  Biso 1.000000     C
    C   1.0     0.585767     0.849748     0.433500  Biso 1.000000     C
    C   1.0     0.607986     0.922599     0.457074  Biso 1.000000     C
    C   1.0     0.631353     0.947536     0.505093  Biso 1.000000     C
    C   1.0     0.634127     0.897919     0.529453  Biso 1.000000     C
    C   1.0     0.652237     0.025009     0.528967  Biso 1.000000     C
    C   1.0     0.691286     0.067388     0.512174  Biso 1.000000     C
    C   1.0     0.709300     0.140606     0.533369  Biso 1.000000     C
    C   1.0     0.688338     0.173604     0.571917  Biso 1.000000     C
    C   1.0     0.650178     0.131706     0.589297  Biso 1.000000     C
    C   1.0     0.632599     0.058305     0.568135  Biso 1.000000     C
    C   1.0     0.561708     0.824646     0.382843  Biso 1.000000     C
    C   1.0     0.496637     0.779596     0.358290  Biso 1.000000     C
    C   1.0     0.474089     0.757353     0.310648  Biso 1.000000     C
    C   1.0     0.517417     0.777498     0.286580  Biso 1.000000     C
    C   1.0     0.583062     0.821405     0.310908  Biso 1.000000     C
    C   1.0     0.604278     0.845655     0.358480  Biso 1.000000     C
    C   1.0     0.494215     0.752336     0.235605  Biso 1.000000     C
    C   1.0     0.704250     0.252682     0.592578  Biso 1.000000     C
    C   1.0     0.882071     0.485015     0.633607  Biso 1.000000     C
    C   1.0     0.383930     0.641584     0.989759  Biso 1.000000     C
    C   1.0     0.413286     0.523398     0.129830  Biso 1.000000     C
    C   1.0     0.430263     0.464159     0.149765  Biso 1.000000     C
    C   1.0     0.416433     0.466480     0.190959  Biso 1.000000     C
    C   1.0     0.437442     0.415262     0.212293  Biso 1.000000     C
    C   1.0     0.473519     0.360517     0.193460  Biso 1.000000     C
    C   1.0     0.485765     0.357544     0.151611  Biso 1.000000     C
    C   1.0     0.464285     0.408608     0.129924  Biso 1.000000     C
    C   1.0     0.498748     0.309092     0.218360  Biso 1.000000     C
    C   1.0     0.525126     0.333015     0.266355  Biso 1.000000     C
    C   1.0     0.549313     0.286013     0.291274  Biso 1.000000     C
    C   1.0     0.546938     0.213880     0.267421  Biso 1.000000     C
    C   1.0     0.519826     0.188179     0.219418  Biso 1.000000     C
    C   1.0     0.496414     0.236574     0.195292  Biso 1.000000     C
    C   1.0     0.574450     0.312135     0.341931  Biso 1.000000     C
    C   1.0     0.535861     0.357565     0.366013  Biso 1.000000     C
    C   1.0     0.557466     0.380919     0.413602  Biso 1.000000     C
    C   1.0     0.619392     0.360596     0.438478  Biso 1.000000     C
    C   1.0     0.659231     0.316587     0.414759  Biso 1.000000     C
    C   1.0     0.636531     0.292060     0.367123  Biso 1.000000     C
    C   1.0     0.513009     0.110786     0.195437  Biso 1.000000     C
    C   1.0     0.453058     0.075795     0.157640  Biso 1.000000     C
    C   1.0     0.444434     0.002262     0.136923  Biso 1.000000     C
    C   1.0     0.495831     0.961464     0.153335  Biso 1.000000     C
    C   1.0     0.556661    -0.003837     0.190297  Biso 1.000000     C
    C   1.0     0.565049     0.069586     0.210928  Biso 1.000000     C
    C   1.0     0.606471     0.652483     0.097342  Biso 1.000000     C
    C   1.0     0.665363     0.641160     0.076377  Biso 1.000000     C
    C   1.0     0.656244     0.581872     0.037678  Biso 1.000000     C
    C   1.0     0.708402     0.572215     0.015696  Biso 1.000000     C
    C   1.0     0.771352     0.621409     0.031691  Biso 1.000000     C
    C   1.0     0.780854     0.679956     0.071137  Biso 1.000000     C
    C   1.0     0.728497     0.690013     0.093119  Biso 1.000000     C
    C   1.0     0.824477     0.613405     0.006317  Biso 1.000000     C
    C   1.0     0.801332     0.588156     0.958238  Biso 1.000000     C
    C   1.0     0.849956     0.585577     0.933196  Biso 1.000000     C
    C   1.0     0.922807     0.607476     0.956758  Biso 1.000000     C
    C   1.0     0.947639     0.630621     0.004776  Biso 1.000000     C
    C   1.0     0.897910     0.633526     0.029145  Biso 1.000000     C
    C   1.0     0.025066     0.651244     0.028682  Biso 1.000000     C
    C   1.0     0.067670     0.690470     0.012116  Biso 1.000000     C
    C   1.0     0.140806     0.708538     0.033454  Biso 1.000000     C
    C   1.0     0.173517     0.687524     0.071944  Biso 1.000000     C
    C   1.0     0.131415     0.649056     0.089047  Biso 1.000000     C
    C   1.0     0.058079     0.631418     0.067739  Biso 1.000000     C
    C   1.0     0.824865     0.561629     0.882541  Biso 1.000000     C
    C   1.0     0.779619     0.496664     0.857957  Biso 1.000000     C
    C   1.0     0.757200     0.474213     0.810320  Biso 1.000000     C
    C   1.0     0.777387     0.517532     0.786294  Biso 1.000000     C
    C   1.0     0.821532     0.583050     0.810654  Biso 1.000000     C
    C   1.0     0.845960     0.604165     0.858218  Biso 1.000000     C
    C   1.0     0.751985     0.494416     0.735329  Biso 1.000000     C
    C   1.0     0.252527     0.703806     0.092778  Biso 1.000000     C
    C   1.0     0.484967     0.881978     0.133657  Biso 1.000000     C
    C   1.0     0.641824     0.384072     0.489510  Biso 1.000000     C
    C   1.0     0.586685     0.476577     0.870173  Biso 1.000000     C
    C   1.0     0.569703     0.535814     0.850236  Biso 1.000000     C
    C   1.0     0.583536     0.533494     0.809043  Biso 1.000000     C
    C   1.0     0.562524     0.584711     0.787709  Biso 1.000000     C
    C   1.0     0.526446     0.639455     0.806541  Biso 1.000000     C
    C   1.0     0.514200     0.642428     0.848390  Biso 1.000000     C
    C   1.0     0.535683     0.591366     0.870078  Biso 1.000000     C
    C   1.0     0.501217     0.690881     0.781642  Biso 1.000000     C
    C   1.0     0.474838     0.666957     0.733647  Biso 1.000000     C
    C   1.0     0.450652     0.713960     0.708728  Biso 1.000000     C
    C   1.0     0.453026     0.786093     0.732580  Biso 1.000000     C
    C   1.0     0.480139     0.811794     0.780584  Biso 1.000000     C
    C   1.0     0.503551     0.763399     0.804710  Biso 1.000000     C
    C   1.0     0.425514     0.687838     0.658071  Biso 1.000000     C
    C   1.0     0.464103     0.642408     0.633989  Biso 1.000000     C
    C   1.0     0.442499     0.619053     0.586400  Biso 1.000000     C
    C   1.0     0.380572     0.639374     0.561524  Biso 1.000000     C
    C   1.0     0.340732     0.683384     0.585243  Biso 1.000000     C
    C   1.0     0.363432     0.707912     0.632878  Biso 1.000000     C
    C   1.0     0.486956     0.889186     0.804565  Biso 1.000000     C
    C   1.0     0.546908     0.924178     0.842362  Biso 1.000000     C
    C   1.0     0.555533     0.997711     0.863078  Biso 1.000000     C
    C   1.0     0.504136     0.038509     0.846668  Biso 1.000000     C
    C   1.0     0.443307     0.000000     0.809704  Biso 1.000000     C
    C   1.0     0.434918     0.930387     0.789074  Biso 1.000000     C
    C   1.0     0.393500     0.347489     0.902662  Biso 1.000000     C
    C   1.0     0.334609     0.358811     0.923627  Biso 1.000000     C
    C   1.0     0.343726     0.418100     0.962324  Biso 1.000000     C
    C   1.0     0.291568     0.427757     0.984306  Biso 1.000000     C
    C   1.0     0.228619     0.378562     0.968312  Biso 1.000000     C
    C   1.0     0.219117     0.320015     0.928866  Biso 1.000000     C
    C   1.0     0.271475     0.309959     0.906884  Biso 1.000000     C
    C   1.0     0.175492     0.386568     0.993685  Biso 1.000000     C
    C   1.0     0.198637     0.411817     0.041764  Biso 1.000000     C
    C   1.0     0.150013     0.414396     0.066806  Biso 1.000000     C
    C   1.0     0.077162     0.392496     0.043244  Biso 1.000000     C
    C   1.0     0.052331     0.369351     0.995226  Biso 1.000000     C
    C   1.0     0.102060     0.366445     0.970857  Biso 1.000000     C
    C   1.0     0.974903     0.348726     0.971319  Biso 1.000000     C
    C   1.0     0.932299     0.309501     0.987885  Biso 1.000000     C
    C   1.0     0.859163     0.291433     0.966547  Biso 1.000000     C
    C   1.0     0.826453     0.312445     0.928056  Biso 1.000000     C
    C   1.0     0.868556     0.350913     0.910953  Biso 1.000000     C
    C   1.0     0.941891     0.368551     0.932261  Biso 1.000000     C
    C   1.0     0.175103     0.438344     0.117461  Biso 1.000000     C
    C   1.0     0.220350     0.503308     0.142045  Biso 1.000000     C
    C   1.0     0.242768     0.525759     0.189682  Biso 1.000000     C
    C   1.0     0.222580     0.482440     0.213708  Biso 1.000000     C
    C   1.0     0.178434     0.416923     0.189347  Biso 1.000000     C
    C   1.0     0.154006     0.395808     0.141783  Biso 1.000000     C
    C   1.0     0.247980     0.505555     0.264673  Biso 1.000000     C
    C   1.0     0.747443     0.296165     0.907222  Biso 1.000000     C
    C   1.0     0.515002     0.117996     0.866345  Biso 1.000000     C
    C   1.0     0.358140     0.615899     0.510492  Biso 1.000000     C
    C   1.0     0.476784     0.586745     0.370447  Biso 1.000000     C
    C   1.0     0.535992     0.569721     0.350384  Biso 1.000000     C
    C   1.0     0.533682     0.583629     0.309239  Biso 1.000000     C
    C   1.0     0.584847     0.562589     0.287759  Biso 1.000000     C
    C   1.0     0.639575     0.526488     0.306429  Biso 1.000000     C
    C   1.0     0.642529     0.514157     0.348228  Biso 1.000000     C
    C   1.0     0.591516     0.535665     0.370061  Biso 1.000000     C
    C   1.0     0.691028     0.501322     0.281425  Biso 1.000000     C
    C   1.0     0.667206     0.475031     0.233425  Biso 1.000000     C
    C   1.0     0.714279     0.450911     0.208440  Biso 1.000000     C
    C   1.0     0.786374     0.453247     0.232218  Biso 1.000000     C
    C   1.0     0.811967     0.480279     0.280230  Biso 1.000000     C
    C   1.0     0.763501     0.503626     0.304420  Biso 1.000000     C
    C   1.0     0.688213     0.425853     0.157787  Biso 1.000000     C
    C   1.0     0.642784     0.464477     0.133869  Biso 1.000000     C
    C   1.0     0.619378     0.442888     0.086284  Biso 1.000000     C
    C   1.0     0.639664     0.380942     0.061265  Biso 1.000000     C
    C   1.0     0.683714     0.341095     0.084815  Biso 1.000000     C
    C   1.0     0.708288     0.363780     0.132442  Biso 1.000000     C
    C   1.0     0.889301     0.487102     0.304214  Biso 1.000000     C
    C   1.0     0.924135     0.547066     0.342095  Biso 1.000000     C
    C   1.0     0.997586     0.555651     0.362929  Biso 1.000000     C
    C   1.0     0.038467     0.504225     0.346527  Biso 1.000000     C
    C   1.0     0.000000     0.443412     0.309458  Biso 1.000000     C
    C   1.0     0.930601     0.435071     0.288701  Biso 1.000000     C
    C   1.0     0.347544     0.393383     0.402663  Biso 1.000000     C
    C   1.0     0.358835     0.334481     0.423513  Biso 1.000000     C
    C   1.0     0.418203     0.343496     0.462059  Biso 1.000000     C
    C   1.0     0.427780     0.291359     0.483969  Biso 1.000000     C
    C   1.0     0.378440     0.228523     0.468039  Biso 1.000000     C
    C   1.0     0.319833     0.219102     0.428727  Biso 1.000000     C
    C   1.0     0.309868     0.271430     0.406812  Biso 1.000000     C
    C   1.0     0.386310     0.175490     0.493388  Biso 1.000000     C
    C   1.0     0.411747     0.198737     0.541467  Biso 1.000000     C
    C   1.0     0.414200     0.150225     0.566501  Biso 1.000000     C
    C   1.0     0.391980     0.077374     0.542928  Biso 1.000000     C
    C   1.0     0.368613     0.052436     0.494908  Biso 1.000000     C
    C   1.0     0.365838     0.102054     0.470548  Biso 1.000000     C
    C   1.0     0.347729     0.974963     0.471034  Biso 1.000000     C
    C   1.0     0.308680     0.932585     0.487828  Biso 1.000000     C
    C   1.0     0.290666     0.859367     0.466634  Biso 1.000000     C
    C   1.0     0.311627     0.826369     0.428085  Biso 1.000000     C
    C   1.0     0.349787     0.868266     0.410705  Biso 1.000000     C
    C   1.0     0.367366     0.941668     0.431867  Biso 1.000000     C
    C   1.0     0.438259     0.175328     0.617158  Biso 1.000000     C
    C   1.0     0.503329     0.220379     0.641711  Biso 1.000000     C
    C   1.0     0.525878     0.242623     0.689353  Biso 1.000000     C
    C   1.0     0.482550     0.222478     0.713421  Biso 1.000000     C
    C   1.0     0.416906     0.178571     0.689093  Biso 1.000000     C
    C   1.0     0.395689     0.154319     0.641522  Biso 1.000000     C
    C   1.0     0.505753     0.247642     0.764396  Biso 1.000000     C
    C   1.0     0.295717     0.747291     0.407426  Biso 1.000000     C
    C   1.0     0.117892     0.514960     0.366396  Biso 1.000000     C
    C   1.0     0.616041     0.358389     0.010243  Biso 1.000000     C
    O   1.0     0.694374     0.439061     0.612524  Biso 1.000000     O
    O   1.0     0.712058     0.611402     0.628031  Biso 1.000000     O
    O   1.0     0.601402     0.554559     0.582619  Biso 1.000000     O
    O   1.0     0.519357     0.425377     0.591543  Biso 1.000000     O
    O   1.0     0.574565     0.388688     0.652434  Biso 1.000000     O
    O   1.0     0.427654     0.729434     0.215564  Biso 1.000000     O
    O   1.0     0.542509     0.755402     0.216043  Biso 1.000000     O
    O   1.0     0.677947     0.280666     0.624961  Biso 1.000000     O
    O   1.0     0.741935     0.286646     0.576156  Biso 1.000000     O
    O   1.0     0.853062     0.427399     0.600779  Biso 1.000000     O
    O   1.0     0.849087     0.533812     0.651313  Biso 1.000000     O
    O   1.0     0.408186     0.594567     0.008604  Biso 1.000000     O
    O   1.0     0.377797     0.705542     0.010554  Biso 1.000000     O
    O   1.0     0.438917     0.694413     0.112804  Biso 1.000000     O
    O   1.0     0.611324     0.712114     0.128152  Biso 1.000000     O
    O   1.0     0.554452     0.601460     0.082641  Biso 1.000000     O
    O   1.0     0.425266     0.519440     0.091729  Biso 1.000000     O
    O   1.0     0.388861     0.574880     0.152845  Biso 1.000000     O
    O   1.0     0.728635     0.427930     0.715228  Biso 1.000000     O
    O   1.0     0.755314     0.542684     0.715845  Biso 1.000000     O
    O   1.0     0.280472     0.677666     0.125159  Biso 1.000000     O
    O   1.0     0.286494     0.741795     0.076535  Biso 1.000000     O
    O   1.0     0.427390     0.852880     0.100879  Biso 1.000000     O
    O   1.0     0.533640     0.849069     0.151444  Biso 1.000000     O
    O   1.0     0.594711     0.408204     0.508410  Biso 1.000000     O
    O   1.0     0.705716     0.377883     0.510269  Biso 1.000000     O
    O   1.0     0.561055     0.305562     0.887198  Biso 1.000000     O
    O   1.0     0.388648     0.287859     0.871851  Biso 1.000000     O
    O   1.0     0.445519     0.398513     0.917362  Biso 1.000000     O
    O   1.0     0.574707     0.480535     0.908275  Biso 1.000000     O
    O   1.0     0.611115     0.425097     0.847160  Biso 1.000000     O
    O   1.0     0.271327     0.572043     0.284775  Biso 1.000000     O
    O   1.0     0.244651     0.457288     0.284156  Biso 1.000000     O
    O   1.0     0.719499     0.322308     0.874843  Biso 1.000000     O
    O   1.0     0.713475     0.258177     0.923466  Biso 1.000000     O
    O   1.0     0.572580     0.147093     0.899122  Biso 1.000000     O
    O   1.0     0.466333     0.150905     0.848555  Biso 1.000000     O
    O   1.0     0.405256     0.591771     0.491593  Biso 1.000000     O
    O   1.0     0.294249     0.622088     0.489733  Biso 1.000000     O
    O   1.0     0.305592     0.560912     0.387479  Biso 1.000000     O
    O   1.0     0.287903     0.388571     0.371971  Biso 1.000000     O
    O   1.0     0.398560     0.445413     0.417381  Biso 1.000000     O
    O   1.0     0.480609     0.574600     0.408460  Biso 1.000000     O
    O   1.0     0.425399     0.611286     0.347568  Biso 1.000000     O
    O   1.0     0.572314     0.270547     0.784437  Biso 1.000000     O
    O   1.0     0.457460     0.244575     0.783959  Biso 1.000000     O
    O   1.0     0.322021     0.719307     0.375043  Biso 1.000000     O
    O   1.0     0.258034     0.713326     0.423848  Biso 1.000000     O
    O   1.0     0.146901     0.572578     0.399221  Biso 1.000000     O
    O   1.0     0.150876     0.466164     0.348688  Biso 1.000000     O
    O   1.0     0.591788     0.405407     0.991399  Biso 1.000000     O
    O   1.0     0.622177     0.294432     0.989449  Biso 1.000000     O
   Zn   1.0     0.748288     0.533396     0.651381  Biso 1.000000    Zn
   Zn   1.0     0.602705     0.451196     0.573311  Biso 1.000000    Zn
   Zn   1.0     0.673956     0.382540     0.650670  Biso 1.000000    Zn
   Zn   1.0     0.751320     0.387318     0.575527  Biso 1.000000    Zn
   Zn   1.0     0.533236     0.748370     0.151581  Biso 1.000000    Zn
   Zn   1.0     0.451084     0.602695     0.073486  Biso 1.000000    Zn
   Zn   1.0     0.382383     0.674203     0.151071  Biso 1.000000    Zn
   Zn   1.0     0.387169     0.751164     0.075846  Biso 1.000000    Zn
   Zn   1.0     0.466736     0.251605     0.848421  Biso 1.000000    Zn
   Zn   1.0     0.548887     0.397280     0.926517  Biso 1.000000    Zn
   Zn   1.0     0.617587     0.325773     0.848931  Biso 1.000000    Zn
   Zn   1.0     0.612801     0.248809     0.924156  Biso 1.000000    Zn
   Zn   1.0     0.251674     0.466578     0.348621  Biso 1.000000    Zn
   Zn   1.0     0.397261     0.548777     0.426691  Biso 1.000000    Zn
   Zn   1.0     0.326007     0.617433     0.349332  Biso 1.000000    Zn
   Zn   1.0     0.248644     0.612653     0.424476  Biso 1.000000    Zn
