#======================================================================

# CRYSTAL DATA

#----------------------------------------------------------------------

data_VESTA_phase_1


_pd_phase_name                         MOF
_cell_length_a                         16.07200
_cell_length_b                         18.86300
_cell_length_c                         18.37900
_cell_angle_alpha                      90.28900
_cell_angle_beta                       90.03500
_cell_angle_gamma                      89.88300
_symmetry_space_group_name_H-M         "P 1"
_symmetry_Int_Tables_number            1

loop_
_symmetry_equiv_pos_as_xyz
   "x, y, z"

loop_
   _atom_site_label
   _atom_site_occupancy
   _atom_site_fract_x
   _atom_site_fract_y
   _atom_site_fract_z
   _atom_site_adp_type
   _atom_site_B_iso_or_equiv
   _atom_site_type_symbol
    H   1.0     0.830610     0.693681     0.516372  Biso 1.000000     H
    H   1.0     0.822574     0.786627     0.523029  Biso 1.000000     H
    H   1.0     0.701190     0.767537     0.614398  Biso 1.000000     H
    H   1.0     0.731788     0.678288     0.619251  Biso 1.000000     H
    H   1.0     0.741264     0.851619     0.319630  Biso 1.000000     H
    H   1.0     0.801157     0.763679     0.386743  Biso 1.000000     H
    H   1.0     0.768147     0.675042     0.383549  Biso 1.000000     H
    H   1.0     0.823419     0.606482     0.599748  Biso 1.000000     H
    H   1.0     0.278185     0.043918     0.739807  Biso 1.000000     H
    H   1.0     0.523835     0.158294     0.511827  Biso 1.000000     H
    H   1.0     0.669614     0.695828     0.486105  Biso 1.000000     H
    H   1.0     0.681143     0.788267     0.478055  Biso 1.000000     H
    H   1.0     0.903494     0.868495     0.770760  Biso 1.000000     H
    H   1.0     0.160507     0.968629     0.783942  Biso 1.000000     H
    H   1.0     0.510346     0.095226     0.630814  Biso 1.000000     H
    H   1.0     0.159521     0.466228     0.709776  Biso 1.000000     H
    H   1.0     0.276592     0.543101     0.753170  Biso 1.000000     H
    H   1.0     0.303413     0.475768     0.952620  Biso 1.000000     H
    H   1.0     0.307867     0.972461     0.543390  Biso 1.000000     H
    H   1.0     0.000000     0.460719     0.668217  Biso 1.000000     H
    H   1.0     0.673997     0.606042     0.405930  Biso 1.000000     H
    H   1.0     0.260019     0.790121     0.667906  Biso 1.000000     H
    H   1.0     0.256737     0.292316     0.832678  Biso 1.000000     H
    H   1.0     0.075447     0.560621     0.743612  Biso 1.000000     H
    H   1.0     0.762198     0.855490     0.680634  Biso 1.000000     H
    H   1.0     0.380612     0.864030     0.626177  Biso 1.000000     H
    H   1.0     0.608932     0.487380     0.412872  Biso 1.000000     H
    H   1.0     0.376779     0.367598     0.873677  Biso 1.000000     H
    H   1.0     0.511195     0.593421     0.868786  Biso 1.000000     H
    H   1.0     0.321846     0.035966     0.425097  Biso 1.000000     H
    H   1.0     0.887114     0.486958     0.593402  Biso 1.000000     H
    H   1.0     0.600590     0.864431     0.228770  Biso 1.000000     H
    H   1.0     0.319133     0.537535     0.072145  Biso 1.000000     H
    H   1.0     0.426043     0.558967     0.256962  Biso 1.000000     H
    H   1.0     0.482603     0.460416     0.335314  Biso 1.000000     H
    H   1.0     0.526271     0.655022     0.989032  Biso 1.000000     H
    H   1.0     0.668981     0.193144     0.015245  Biso 1.000000     H
    H   1.0     0.676615     0.286002     0.022981  Biso 1.000000     H
    H   1.0     0.798189     0.265678     0.114259  Biso 1.000000     H
    H   1.0     0.767498     0.176515     0.118201  Biso 1.000000     H
    H   1.0     0.756945     0.352724     0.819662  Biso 1.000000     H
    H   1.0     0.698019     0.264335     0.886470  Biso 1.000000     H
    H   1.0     0.731571     0.175787     0.882379  Biso 1.000000     H
    H   1.0     0.675505     0.105135     0.097600  Biso 1.000000     H
    H   1.0     0.223285     0.542579     0.237329  Biso 1.000000     H
    H   1.0     0.977987     0.659740     0.011398  Biso 1.000000     H
    H   1.0     0.830025     0.195624     0.985206  Biso 1.000000     H
    H   1.0     0.817983     0.288130     0.978115  Biso 1.000000     H
    H   1.0     0.595632     0.365990     0.271157  Biso 1.000000     H
    H   1.0     0.340376     0.466538     0.282045  Biso 1.000000     H
    H   1.0    -0.009135     0.595545     0.129834  Biso 1.000000     H
    H   1.0     0.340164     0.965205     0.213406  Biso 1.000000     H
    H   1.0     0.222268     0.041354     0.256996  Biso 1.000000     H
    H   1.0     0.196509    -0.025187     0.454880  Biso 1.000000     H
    H   1.0     0.192366     0.471504     0.041719  Biso 1.000000     H
    H   1.0     0.484707     0.958979     0.166582  Biso 1.000000     H
    H   1.0     0.825872     0.106790     0.904168  Biso 1.000000     H
    H   1.0     0.238949     0.288009     0.167828  Biso 1.000000     H
    H   1.0     0.243310     0.789633     0.333363  Biso 1.000000     H
    H   1.0     0.425254     0.058380     0.242935  Biso 1.000000     H
    H   1.0     0.736781     0.353509     0.180954  Biso 1.000000     H
    H   1.0     0.118867     0.362681     0.125592  Biso 1.000000     H
    H   1.0     0.891906     0.988261     0.910563  Biso 1.000000     H
    H   1.0     0.122664     0.864404     0.374892  Biso 1.000000     H
    H   1.0    -0.012049     0.091706     0.370143  Biso 1.000000     H
    H   1.0     0.178788     0.536052     0.923854  Biso 1.000000     H
    H   1.0     0.612276     0.985672     0.090898  Biso 1.000000     H
    H   1.0     0.897440     0.366502     0.729043  Biso 1.000000     H
    H   1.0     0.181631     0.038559     0.573532  Biso 1.000000     H
    H   1.0     0.075257     0.061544     0.756427  Biso 1.000000     H
    H   1.0     0.018937     0.962222     0.833598  Biso 1.000000     H
    H   1.0     0.973650     0.155188     0.489464  Biso 1.000000     H
    H   1.0     0.330977     0.806748     0.984727  Biso 1.000000     H
    H   1.0     0.323304     0.713889     0.977032  Biso 1.000000     H
    H   1.0     0.201780     0.734179     0.885724  Biso 1.000000     H
    H   1.0     0.232422     0.823355     0.881778  Biso 1.000000     H
    H   1.0     0.242970     0.647230     0.180310  Biso 1.000000     H
    H   1.0     0.301919     0.735620     0.113527  Biso 1.000000     H
    H   1.0     0.268377     0.824171     0.117604  Biso 1.000000     H
    H   1.0     0.324421     0.894747     0.902415  Biso 1.000000     H
    H   1.0     0.776718     0.457412     0.762685  Biso 1.000000     H
    H   1.0     0.021966     0.340239     0.988623  Biso 1.000000     H
    H   1.0     0.169934     0.804337     0.014772  Biso 1.000000     H
    H   1.0     0.181929     0.711828     0.021895  Biso 1.000000     H
    H   1.0     0.404358     0.633947     0.728804  Biso 1.000000     H
    H   1.0     0.659612     0.533444     0.717973  Biso 1.000000     H
    H   1.0     0.000000     0.404436     0.870187  Biso 1.000000     H
    H   1.0     0.660126     0.034722     0.786714  Biso 1.000000     H
    H   1.0     0.778141     0.958694     0.743169  Biso 1.000000     H
    H   1.0     0.803563     0.000000     0.545303  Biso 1.000000     H
    H   1.0     0.807632     0.528511     0.958294  Biso 1.000000     H
    H   1.0     0.515272     0.040919     0.833566  Biso 1.000000     H
    H   1.0     0.174095     0.893194     0.095868  Biso 1.000000     H
    H   1.0     0.761020     0.711979     0.832193  Biso 1.000000     H
    H   1.0     0.756692     0.210331     0.666626  Biso 1.000000     H
    H   1.0     0.574728     0.941557     0.757168  Biso 1.000000     H
    H   1.0     0.263204     0.646389     0.819009  Biso 1.000000     H
    H   1.0     0.881112     0.637316     0.874425  Biso 1.000000     H
    H   1.0     0.108110     0.011747     0.089528  Biso 1.000000     H
    H   1.0     0.877431     0.135670     0.625123  Biso 1.000000     H
    H   1.0     0.000000     0.908497     0.629809  Biso 1.000000     H
    H   1.0     0.821191     0.463959     0.076160  Biso 1.000000     H
    H   1.0     0.387669     0.014198     0.909206  Biso 1.000000     H
    H   1.0     0.102477     0.633454     0.270930  Biso 1.000000     H
    H   1.0     0.818333     0.961312     0.426664  Biso 1.000000     H
    H   1.0     0.924774     0.938472     0.243684  Biso 1.000000     H
    H   1.0     0.981109     0.037800     0.166528  Biso 1.000000     H
    H   1.0     0.026650     0.844962     0.510514  Biso 1.000000     H
    H   1.0     0.169376     0.306276     0.483659  Biso 1.000000     H
    H   1.0     0.177418     0.213331     0.476994  Biso 1.000000     H
    H   1.0     0.298799     0.232423     0.385632  Biso 1.000000     H
    H   1.0     0.268217     0.321677     0.380788  Biso 1.000000     H
    H   1.0     0.258648     0.148347     0.680467  Biso 1.000000     H
    H   1.0     0.198821     0.236241     0.613279  Biso 1.000000     H
    H   1.0     0.231799     0.324885     0.616496  Biso 1.000000     H
    H   1.0     0.176591     0.393495     0.400261  Biso 1.000000     H
    H   1.0     0.721827     0.956076     0.260262  Biso 1.000000     H
    H   1.0     0.476158     0.841722     0.488219  Biso 1.000000     H
    H   1.0     0.330362     0.304140     0.513951  Biso 1.000000     H
    H   1.0     0.318850     0.211696     0.521976  Biso 1.000000     H
    H   1.0     0.096541     0.131503     0.229218  Biso 1.000000     H
    H   1.0     0.839497     0.031362     0.216105  Biso 1.000000     H
    H   1.0     0.489643     0.904804     0.369238  Biso 1.000000     H
    H   1.0     0.840469     0.533785     0.290261  Biso 1.000000     H
    H   1.0     0.723438     0.456862     0.246868  Biso 1.000000     H
    H   1.0     0.696612     0.524143     0.047400  Biso 1.000000     H
    H   1.0     0.692186     0.027506     0.456646  Biso 1.000000     H
    H   1.0    -0.015562     0.539265     0.331801  Biso 1.000000     H
    H   1.0     0.325912     0.393927     0.594204  Biso 1.000000     H
    H   1.0     0.739975     0.209889     0.332106  Biso 1.000000     H
    H   1.0     0.743206     0.707636     0.167294  Biso 1.000000     H
    H   1.0     0.924547     0.439364     0.256418  Biso 1.000000     H
    H   1.0     0.237811     0.144500     0.319373  Biso 1.000000     H
    H   1.0     0.619387     0.135982     0.373853  Biso 1.000000     H
    H   1.0     0.391008     0.512575     0.587253  Biso 1.000000     H
    H   1.0     0.623208     0.632303     0.126292  Biso 1.000000     H
    H   1.0     0.488820     0.406498     0.131231  Biso 1.000000     H
    H   1.0     0.678203     0.963990     0.574936  Biso 1.000000     H
    H   1.0     0.112906     0.513023     0.406607  Biso 1.000000     H
    H   1.0     0.399309     0.135522     0.771335  Biso 1.000000     H
    H   1.0     0.680874     0.462395     0.927868  Biso 1.000000     H
    H   1.0     0.574051     0.440885     0.742974  Biso 1.000000     H
    H   1.0     0.517440     0.539480     0.664700  Biso 1.000000     H
    H   1.0     0.473726     0.344918     0.010975  Biso 1.000000     H
    C   1.0     0.616170     0.716994     0.314982  Biso 1.000000     C
    C   1.0     0.427246     0.139058     0.390031  Biso 1.000000     C
    C   1.0     0.786813     0.737232     0.528364  Biso 1.000000     C
    C   1.0     0.754220     0.731688     0.606330  Biso 1.000000     C
    C   1.0     0.885277     0.719268     0.686821  Biso 1.000000     C
    C   1.0     0.689410     0.816488     0.308045  Biso 1.000000     C
    C   1.0     0.747205     0.729279     0.395556  Biso 1.000000     C
    C   1.0     0.916481     0.647528     0.674077  Biso 1.000000     C
    C   1.0     0.131459     0.831266     0.756510  Biso 1.000000     C
    C   1.0     0.202264     0.875136     0.727919  Biso 1.000000     C
    C   1.0     0.199984     0.375002     0.769441  Biso 1.000000     C
    C   1.0     0.405834     0.531907     0.903621  Biso 1.000000     C
    C   1.0     0.427739     0.637626     0.109900  Biso 1.000000     C
    C   1.0     0.334662     0.958327     0.679623  Biso 1.000000     C
    C   1.0     0.407813     0.030991     0.594024  Biso 1.000000     C
    C   1.0     0.879823     0.595395     0.630171  Biso 1.000000     C
    C   1.0     0.273466     0.988481     0.723908  Biso 1.000000     C
    C   1.0     0.476660     0.117551     0.519079  Biso 1.000000     C
    C   1.0     0.715038     0.737691     0.473454  Biso 1.000000     C
    C   1.0     0.331831     0.459962     0.816927  Biso 1.000000     C
    C   1.0     0.583924     0.645938     0.328425  Biso 1.000000     C
    C   1.0     0.881896     0.824689     0.737491  Biso 1.000000     C
    C   1.0     0.422786     0.600634     0.038217  Biso 1.000000     C
    C   1.0     0.208011     0.946660     0.748190  Biso 1.000000     C
    C   1.0     0.469526     0.082695     0.585217  Biso 1.000000     C
    C   1.0     0.206376     0.445604     0.746849  Biso 1.000000     C
    C   1.0     0.271528     0.488304     0.770719  Biso 1.000000     C
    C   1.0     0.351857     0.515208     0.960570  Biso 1.000000     C
    C   1.0     0.354660     0.013458     0.536493  Biso 1.000000     C
    C   1.0     0.986898     0.513256     0.667535  Biso 1.000000     C
    C   1.0     0.618568     0.594666     0.374227  Biso 1.000000     C
    C   1.0     0.422836     0.101466     0.460957  Biso 1.000000     C
    C   1.0     0.264075     0.845979     0.682803  Biso 1.000000     C
    C   1.0     0.261149     0.347553     0.816132  Biso 1.000000     C
    C   1.0     0.020661     0.567950     0.709458  Biso 1.000000     C
    C   1.0     0.813506     0.819891     0.692639  Biso 1.000000     C
    C   1.0     0.330692     0.887091     0.658811  Biso 1.000000     C
    C   1.0     0.581887     0.527807     0.377790  Biso 1.000000     C
    C   1.0     0.327478     0.389484     0.839684  Biso 1.000000     C
    C   1.0     0.469586     0.581623     0.913873  Biso 1.000000     C
    C   1.0     0.362575     0.048789     0.470608  Biso 1.000000     C
    C   1.0     0.915680     0.528049     0.627012  Biso 1.000000     C
    C   1.0     0.621348     0.821152     0.262814  Biso 1.000000     C
    C   1.0     0.360758     0.549614     0.027212  Biso 1.000000     C
    C   1.0     0.479913     0.566540     0.292194  Biso 1.000000     C
    C   1.0     0.511819     0.512629     0.335833  Biso 1.000000     C
    C   1.0     0.477616     0.615672     0.980751  Biso 1.000000     C
    C   1.0     0.129174     0.330150     0.741963  Biso 1.000000     C
    C   1.0     0.883397     0.218597     0.814514  Biso 1.000000     C
    C   1.0     0.074770     0.640424     0.889504  Biso 1.000000     C
    C   1.0     0.712601     0.236543     0.027779  Biso 1.000000     C
    C   1.0     0.745130     0.230129     0.105752  Biso 1.000000     C
    C   1.0     0.614143     0.217342     0.186097  Biso 1.000000     C
    C   1.0     0.809161     0.317845     0.807987  Biso 1.000000     C
    C   1.0     0.752207     0.229928     0.894941  Biso 1.000000     C
    C   1.0     0.583134     0.145702     0.172947  Biso 1.000000     C
    C   1.0     0.368147     0.328630     0.256135  Biso 1.000000     C
    C   1.0     0.297636     0.372938     0.227054  Biso 1.000000     C
    C   1.0     0.299852     0.873157     0.271481  Biso 1.000000     C
    C   1.0     0.093544     0.030389     0.405540  Biso 1.000000     C
    C   1.0     0.072710     0.139168     0.610278  Biso 1.000000     C
    C   1.0     0.165704     0.457037     0.178094  Biso 1.000000     C
    C   1.0     0.092928     0.530666     0.092666  Biso 1.000000     C
    C   1.0     0.619496     0.093857     0.128375  Biso 1.000000     C
    C   1.0     0.227396     0.486959     0.221951  Biso 1.000000     C
    C   1.0     0.024805     0.618462     0.018347  Biso 1.000000     C
    C   1.0     0.784369     0.237584     0.972951  Biso 1.000000     C
    C   1.0     0.167223     0.957397     0.319474  Biso 1.000000     C
    C   1.0     0.916197     0.147545     0.827612  Biso 1.000000     C
    C   1.0     0.617307     0.322381     0.237578  Biso 1.000000     C
    C   1.0     0.077533     0.101263     0.539082  Biso 1.000000     C
    C   1.0     0.292552     0.444711     0.246582  Biso 1.000000     C
    C   1.0     0.031615     0.582998     0.084195  Biso 1.000000     C
    C   1.0     0.293210     0.944090     0.249942  Biso 1.000000     C
    C   1.0     0.227623     0.986403     0.273989  Biso 1.000000     C
    C   1.0     0.148119     0.014553     0.462441  Biso 1.000000     C
    C   1.0     0.145900     0.512996     0.035058  Biso 1.000000     C
    C   1.0     0.513170     0.000000     0.165921  Biso 1.000000     C
    C   1.0     0.881625     0.095826     0.872744  Biso 1.000000     C
    C   1.0     0.078544     0.602310     0.960212  Biso 1.000000     C
    C   1.0     0.235425     0.344022     0.182257  Biso 1.000000     C
    C   1.0     0.238687     0.845086     0.317566  Biso 1.000000     C
    C   1.0     0.479642     0.065919     0.208449  Biso 1.000000     C
    C   1.0     0.685647     0.317828     0.192683  Biso 1.000000     C
    C   1.0     0.169057     0.385574     0.157962  Biso 1.000000     C
    C   1.0     0.918833     0.029038     0.875990  Biso 1.000000     C
    C   1.0     0.172020     0.886690     0.341412  Biso 1.000000     C
    C   1.0     0.029897     0.080508     0.415239  Biso 1.000000     C
    C   1.0     0.138240     0.548887     0.969475  Biso 1.000000     C
    C   1.0     0.583876     0.026544     0.124990  Biso 1.000000     C
    C   1.0     0.877200     0.322985     0.762891  Biso 1.000000     C
    C   1.0     0.139694     0.050054     0.528569  Biso 1.000000     C
    C   1.0     0.021081     0.068715     0.791371  Biso 1.000000     C
    C   1.0     0.989312     0.014381     0.834366  Biso 1.000000     C
    C   1.0     0.022325     0.115608     0.481582  Biso 1.000000     C
    C   1.0     0.370902     0.828716     0.243301  Biso 1.000000     C
    C   1.0     0.116556     0.781380     0.185502  Biso 1.000000     C
    C   1.0     0.925177     0.359572     0.110515  Biso 1.000000     C
    C   1.0     0.287339     0.763357     0.972212  Biso 1.000000     C
    C   1.0     0.254818     0.769750     0.894234  Biso 1.000000     C
    C   1.0     0.385814     0.782572     0.813900  Biso 1.000000     C
    C   1.0     0.190763     0.682116     0.191996  Biso 1.000000     C
    C   1.0     0.247734     0.770030     0.105052  Biso 1.000000     C
    C   1.0     0.416818     0.854209     0.827079  Biso 1.000000     C
    C   1.0     0.631831     0.671354     0.743884  Biso 1.000000     C
    C   1.0     0.702344     0.627047     0.772964  Biso 1.000000     C
    C   1.0     0.700269     0.126793     0.728568  Biso 1.000000     C
    C   1.0     0.906708     0.969669     0.594529  Biso 1.000000     C
    C   1.0     0.927342     0.860826     0.389791  Biso 1.000000     C
    C   1.0     0.834287     0.542958     0.821921  Biso 1.000000     C
    C   1.0     0.907056     0.469330     0.907349  Biso 1.000000     C
    C   1.0     0.380445     0.906036     0.871665  Biso 1.000000     C
    C   1.0     0.772598     0.513032     0.778063  Biso 1.000000     C
    C   1.0     0.975155     0.381523     0.981671  Biso 1.000000     C
    C   1.0     0.215569     0.762363     0.027041  Biso 1.000000     C
    C   1.0     0.833037     0.042656     0.680609  Biso 1.000000     C
    C   1.0     0.083781     0.852446     0.172437  Biso 1.000000     C
    C   1.0     0.382674     0.677546     0.762394  Biso 1.000000     C
    C   1.0     0.922579     0.898729     0.461001  Biso 1.000000     C
    C   1.0     0.707436     0.555275     0.753435  Biso 1.000000     C
    C   1.0     0.968358     0.416989     0.915823  Biso 1.000000     C
    C   1.0     0.707039     0.055883     0.750164  Biso 1.000000     C
    C   1.0     0.772687     0.013624     0.726127  Biso 1.000000     C
    C   1.0     0.852003     0.985405     0.537694  Biso 1.000000     C
    C   1.0     0.854087     0.487010     0.964957  Biso 1.000000     C
    C   1.0     0.486797    -0.011587     0.834192  Biso 1.000000     C
    C   1.0     0.118362     0.904169     0.127315  Biso 1.000000     C
    C   1.0     0.921417     0.397685     0.039805  Biso 1.000000     C
    C   1.0     0.764552     0.655966     0.817761  Biso 1.000000     C
    C   1.0     0.761401     0.154895     0.682466  Biso 1.000000     C
    C   1.0     0.520329     0.934005     0.791639  Biso 1.000000     C
    C   1.0     0.314332     0.682079     0.807288  Biso 1.000000     C
    C   1.0     0.830925     0.614420     0.842055  Biso 1.000000     C
    C   1.0     0.081181     0.970969     0.124099  Biso 1.000000     C
    C   1.0     0.828119     0.113345     0.658625  Biso 1.000000     C
    C   1.0     0.970415     0.919615     0.584771  Biso 1.000000     C
    C   1.0     0.861734     0.451117     0.030538  Biso 1.000000     C
    C   1.0     0.416075     0.973343     0.875096  Biso 1.000000     C
    C   1.0     0.122727     0.676977     0.237095  Biso 1.000000     C
    C   1.0     0.860382     0.949895     0.471567  Biso 1.000000     C
    C   1.0     0.978939     0.931298     0.208727  Biso 1.000000     C
    C   1.0     0.010720     0.985635     0.165744  Biso 1.000000     C
    C   1.0     0.977931     0.884498     0.518429  Biso 1.000000     C
    C   1.0     0.629161     0.171208     0.756719  Biso 1.000000     C
    C   1.0     0.383805     0.282929     0.685061  Biso 1.000000     C
    C   1.0     0.572760     0.860934     0.610004  Biso 1.000000     C
    C   1.0     0.213177     0.262728     0.471667  Biso 1.000000     C
    C   1.0     0.245775     0.268279     0.393702  Biso 1.000000     C
    C   1.0     0.114722     0.280714     0.313196  Biso 1.000000     C
    C   1.0     0.310521     0.183464     0.692036  Biso 1.000000     C
    C   1.0     0.252764     0.270655     0.604483  Biso 1.000000     C
    C   1.0     0.083517     0.352452     0.325943  Biso 1.000000     C
    C   1.0     0.868537     0.168734     0.243515  Biso 1.000000     C
    C   1.0     0.797736     0.124864     0.272113  Biso 1.000000     C
    C   1.0     0.799976     0.624983     0.230567  Biso 1.000000     C
    C   1.0     0.594180     0.468016     0.096395  Biso 1.000000     C
    C   1.0     0.572245     0.362327     0.890107  Biso 1.000000     C
    C   1.0     0.665342     0.041678     0.320421  Biso 1.000000     C
    C   1.0     0.592206     0.969007     0.406021  Biso 1.000000     C
    C   1.0     0.120183     0.404585     0.369844  Biso 1.000000     C
    C   1.0     0.726542     0.011517     0.276147  Biso 1.000000     C
    C   1.0     0.523345     0.882454     0.480963  Biso 1.000000     C
    C   1.0     0.284946     0.262267     0.526586  Biso 1.000000     C
    C   1.0     0.668176     0.539974     0.183086  Biso 1.000000     C
    C   1.0     0.416068     0.353977     0.671605  Biso 1.000000     C
    C   1.0     0.118124     0.175305     0.262500  Biso 1.000000     C
    C   1.0     0.577216     0.399302     0.961796  Biso 1.000000     C
    C   1.0     0.791990     0.053338     0.251850  Biso 1.000000     C
    C   1.0     0.530476     0.917318     0.414831  Biso 1.000000     C
    C   1.0     0.793611     0.554385     0.253176  Biso 1.000000     C
    C   1.0     0.728481     0.511658     0.229309  Biso 1.000000     C
    C   1.0     0.648160     0.484711     0.039447  Biso 1.000000     C
    C   1.0     0.645378     0.986521     0.463545  Biso 1.000000     C
    C   1.0     0.013109     0.486727     0.332485  Biso 1.000000     C
    C   1.0     0.381390     0.405273     0.625852  Biso 1.000000     C
    C   1.0     0.577181     0.898525     0.539080  Biso 1.000000     C
    C   1.0     0.735919     0.154029     0.317217  Biso 1.000000     C
    C   1.0     0.738813     0.652403     0.183856  Biso 1.000000     C
    C   1.0     0.979337     0.432033     0.290567  Biso 1.000000     C
    C   1.0     0.186503     0.180098     0.307365  Biso 1.000000     C
    C   1.0     0.669310     0.112917     0.341224  Biso 1.000000     C
    C   1.0     0.418087     0.472126     0.622286  Biso 1.000000     C
    C   1.0     0.672509     0.610445     0.160304  Biso 1.000000     C
    C   1.0     0.530426     0.418301     0.086143  Biso 1.000000     C
    C   1.0     0.637464     0.951183     0.529426  Biso 1.000000     C
    C   1.0     0.084331     0.471932     0.373003  Biso 1.000000     C
    C   1.0     0.378581     0.178797     0.737270  Biso 1.000000     C
    C   1.0     0.639244     0.450321     0.972799  Biso 1.000000     C
    C   1.0     0.520146     0.433339     0.707778  Biso 1.000000     C
    C   1.0     0.488211     0.487271     0.664184  Biso 1.000000     C
    C   1.0     0.522380     0.384267     0.019258  Biso 1.000000     C
    C   1.0     0.870770     0.669860     0.258033  Biso 1.000000     C
    N   1.0     0.815970     0.753498     0.660902  Biso 1.000000     N
    N   1.0     0.685814     0.750893     0.340720  Biso 1.000000     N
    N   1.0     0.987267     0.633104     0.712252  Biso 1.000000     N
    N   1.0     0.514100     0.631200     0.288980  Biso 1.000000     N
    N   1.0     0.577072     0.759481     0.267241  Biso 1.000000     N
    N   1.0     0.925276     0.762310     0.733760  Biso 1.000000     N
    N   1.0     0.683345     0.251661     0.160441  Biso 1.000000     N
    N   1.0     0.813416     0.252108     0.840333  Biso 1.000000     N
    N   1.0     0.512784     0.131014     0.211465  Biso 1.000000     N
    N   1.0     0.986378     0.133318     0.788472  Biso 1.000000     N
    N   1.0     0.922132     0.261467     0.767067  Biso 1.000000     N
    N   1.0     0.574094     0.260106     0.233355  Biso 1.000000     N
    N   1.0     0.316619     0.748237     0.839549  Biso 1.000000     N
    N   1.0     0.186525     0.747861     0.159667  Biso 1.000000     N
    N   1.0     0.487178     0.868913     0.788582  Biso 1.000000     N
    N   1.0     0.013615     0.866682     0.211594  Biso 1.000000     N
    N   1.0     0.077811     0.738506     0.232938  Biso 1.000000     N
    N   1.0     0.425873     0.739827     0.766632  Biso 1.000000     N
    N   1.0     0.184028     0.246482     0.339119  Biso 1.000000     N
    N   1.0     0.314146     0.249044     0.659332  Biso 1.000000     N
    N   1.0     0.012728     0.366878     0.287773  Biso 1.000000     N
    N   1.0     0.485935     0.368690     0.711000  Biso 1.000000     N
    N   1.0     0.422890     0.240449     0.732818  Biso 1.000000     N
    N   1.0     0.074735     0.237680     0.266241  Biso 1.000000     N
    O   1.0     0.485936     0.185627     0.381311  Biso 1.000000     O
    O   1.0     0.403447     0.000014     0.661887  Biso 1.000000     O
    O   1.0     0.374685     0.126237     0.340532  Biso 1.000000     O
    O   1.0     0.079732     0.857891     0.799943  Biso 1.000000     O
    O   1.0     0.399861     0.502669     0.834689  Biso 1.000000     O
    O   1.0     0.129339     0.765734     0.734488  Biso 1.000000     O
    O   1.0     0.486061     0.684708     0.118788  Biso 1.000000     O
    O   1.0     0.375941     0.623813     0.159461  Biso 1.000000     O
    O   1.0     0.077089     0.355178     0.698004  Biso 1.000000     O
    O   1.0     0.127149     0.265372     0.765457  Biso 1.000000     O
    O   1.0     0.000000     0.688195     0.881292  Biso 1.000000     O
    O   1.0     0.097016     0.499126     0.160251  Biso 1.000000     O
    O   1.0     0.126913     0.626727     0.839997  Biso 1.000000     O
    O   1.0     0.419894     0.355043     0.299644  Biso 1.000000     O
    O   1.0     0.098455    -0.000511     0.337326  Biso 1.000000     O
    O   1.0     0.369987     0.262983     0.234475  Biso 1.000000     O
    O   1.0     0.000000     0.185666     0.618983  Biso 1.000000     O
    O   1.0     0.125302     0.126574     0.659623  Biso 1.000000     O
    O   1.0     0.423201     0.854775     0.200403  Biso 1.000000     O
    O   1.0     0.372627     0.763311     0.265114  Biso 1.000000     O
    O   1.0    -0.017022     0.311814     0.118736  Biso 1.000000     O
    O   1.0     0.902977     0.500873     0.839766  Biso 1.000000     O
    O   1.0     0.873016     0.373264     0.160008  Biso 1.000000     O
    O   1.0     0.580093     0.644946     0.700363  Biso 1.000000     O
    O   1.0     0.901846     0.000000     0.662732  Biso 1.000000     O
    O   1.0     0.629980     0.736997     0.765556  Biso 1.000000     O
    O   1.0    -0.013495     0.814325     0.381045  Biso 1.000000     O
    O   1.0     0.874715     0.873427     0.340473  Biso 1.000000     O
    O   1.0     0.576873     0.145156     0.799628  Biso 1.000000     O
    O   1.0     0.627398     0.236608     0.734887  Biso 1.000000     O
    O   1.0     0.514062     0.814369     0.618716  Biso 1.000000     O
    O   1.0     0.596557     0.999995     0.338164  Biso 1.000000     O
    O   1.0     0.625310     0.873758     0.659510  Biso 1.000000     O
    O   1.0     0.920262     0.142111     0.200079  Biso 1.000000     O
    O   1.0     0.600158     0.497254     0.165327  Biso 1.000000     O
    O   1.0     0.870658     0.234267     0.265535  Biso 1.000000     O
    O   1.0     0.513929     0.315242     0.881219  Biso 1.000000     O
    O   1.0     0.624024     0.376161     0.840536  Biso 1.000000     O
    O   1.0     0.922906     0.644829     0.301945  Biso 1.000000     O
    O   1.0     0.872732     0.734657     0.234590  Biso 1.000000     O
   Zn   1.0     0.471448     0.716315     0.221951  Biso 1.000000    Zn
   Zn   1.0     0.031468     0.719198     0.778172  Biso 1.000000    Zn
   Zn   1.0     0.028326     0.218981     0.721751  Biso 1.000000    Zn
   Zn   1.0     0.468472     0.216407     0.278083  Biso 1.000000    Zn
   Zn   1.0     0.971627     0.781011     0.278277  Biso 1.000000    Zn
   Zn   1.0     0.531507     0.783575     0.721938  Biso 1.000000    Zn
   Zn   1.0     0.528573     0.283631     0.778055  Biso 1.000000    Zn
   Zn   1.0     0.968527     0.280799     0.221848  Biso 1.000000    Zn
