#======================================================================

# CRYSTAL DATA

#----------------------------------------------------------------------

data_VESTA_phase_1


_pd_phase_name                         MOF
_cell_length_a                         16.50100
_cell_length_b                         20.79500
_cell_length_c                         15.56200
_cell_angle_alpha                      90.11600
_cell_angle_beta                       102.72900
_cell_angle_gamma                      89.98300
_symmetry_space_group_name_H-M         "P 1"
_symmetry_Int_Tables_number            1

loop_
_symmetry_equiv_pos_as_xyz
   "x, y, z"

loop_
   _atom_site_label
   _atom_site_occupancy
   _atom_site_fract_x
   _atom_site_fract_y
   _atom_site_fract_z
   _atom_site_adp_type
   _atom_site_B_iso_or_equiv
   _atom_site_type_symbol
    H   1.0    -0.026587    -0.004572     0.589934  Biso 1.000000     H
    H   1.0    -0.026571     0.495451     0.589941  Biso 1.000000     H
    H   1.0     0.473400    -0.004576     0.589923  Biso 1.000000     H
    H   1.0     0.473434     0.495453     0.589938  Biso 1.000000     H
    H   1.0     0.069939     0.471692     0.570238  Biso 1.000000     H
    H   1.0     0.069931     0.971688     0.570228  Biso 1.000000     H
    H   1.0     0.569944     0.471690     0.570238  Biso 1.000000     H
    H   1.0     0.569923     0.971678     0.570238  Biso 1.000000     H
    H   1.0     0.095578     0.086165     0.525895  Biso 1.000000     H
    H   1.0     0.095590     0.586187     0.525893  Biso 1.000000     H
    H   1.0     0.595586     0.086154     0.525909  Biso 1.000000     H
    H   1.0     0.595604     0.586183     0.525893  Biso 1.000000     H
    H   1.0     0.091489     0.074794     0.637921  Biso 1.000000     H
    H   1.0     0.091503     0.574818     0.637918  Biso 1.000000     H
    H   1.0     0.591483     0.074784     0.637931  Biso 1.000000     H
    H   1.0     0.591516     0.574816     0.637918  Biso 1.000000     H
    H   1.0     0.372132     0.227800     0.451566  Biso 1.000000     H
    H   1.0     0.372159     0.727832     0.451568  Biso 1.000000     H
    H   1.0     0.872138     0.227802     0.451568  Biso 1.000000     H
    H   1.0     0.872157     0.727828     0.451567  Biso 1.000000     H
    H   1.0     0.485716     0.145500     0.696233  Biso 1.000000     H
    H   1.0     0.485730     0.645519     0.696229  Biso 1.000000     H
    H   1.0     0.985727     0.145500     0.696232  Biso 1.000000     H
    H   1.0     0.985732     0.645519     0.696229  Biso 1.000000     H
    H   1.0     0.232833     0.392688     0.428829  Biso 1.000000     H
    H   1.0     0.232841     0.892699     0.428824  Biso 1.000000     H
    H   1.0     0.732837     0.392686     0.428829  Biso 1.000000     H
    H   1.0     0.732845     0.892701     0.428824  Biso 1.000000     H
    H   1.0     0.274730     0.245437     0.909459  Biso 1.000000     H
    H   1.0     0.274741     0.745454     0.909457  Biso 1.000000     H
    H   1.0     0.774725     0.245439     0.909454  Biso 1.000000     H
    H   1.0     0.774745     0.745453     0.909456  Biso 1.000000     H
    H   1.0     0.178087     0.221576     0.928608  Biso 1.000000     H
    H   1.0     0.178097     0.721592     0.928604  Biso 1.000000     H
    H   1.0     0.678082     0.221579     0.928605  Biso 1.000000     H
    H   1.0     0.678100     0.721592     0.928600  Biso 1.000000     H
    H   1.0     0.151921     0.336151    -0.027147  Biso 1.000000     H
    H   1.0     0.151929     0.836168    -0.027153  Biso 1.000000     H
    H   1.0     0.651920     0.336154    -0.027147  Biso 1.000000     H
    H   1.0     0.651930     0.836167    -0.027161  Biso 1.000000     H
    H   1.0     0.156595     0.324621     0.860959  Biso 1.000000     H
    H   1.0     0.156607     0.824637     0.860954  Biso 1.000000     H
    H   1.0     0.656590     0.324624     0.860958  Biso 1.000000     H
    H   1.0     0.656612     0.824636     0.860947  Biso 1.000000     H
    H   1.0     0.376190     0.477362     0.048574  Biso 1.000000     H
    H   1.0     0.376199     0.977379     0.048572  Biso 1.000000     H
    H   1.0     0.876191     0.477362     0.048573  Biso 1.000000     H
    H   1.0     0.876200     0.977377     0.048573  Biso 1.000000     H
    H   1.0     0.261794     0.395711     0.803263  Biso 1.000000     H
    H   1.0     0.261807     0.895726     0.803261  Biso 1.000000     H
    H   1.0     0.761793     0.395712     0.803261  Biso 1.000000     H
    H   1.0     0.761810     0.895726     0.803259  Biso 1.000000     H
    H   1.0     0.013764     0.143375     0.070283  Biso 1.000000     H
    H   1.0     0.013767     0.643393     0.070281  Biso 1.000000     H
    H   1.0     0.513769     0.143377     0.070283  Biso 1.000000     H
    H   1.0     0.513771     0.643393     0.070283  Biso 1.000000     H
    H   1.0     0.523565     0.505108     0.409915  Biso 1.000000     H
    H   1.0     0.523570     0.000000     0.409919  Biso 1.000000     H
    H   1.0     0.000000     0.505107     0.409914  Biso 1.000000     H
    H   1.0     0.000000     0.000000     0.409911  Biso 1.000000     H
    H   1.0     0.427021     0.028810     0.429595  Biso 1.000000     H
    H   1.0     0.427032     0.528828     0.429605  Biso 1.000000     H
    H   1.0     0.927027     0.028812     0.429608  Biso 1.000000     H
    H   1.0     0.927042     0.528823     0.429609  Biso 1.000000     H
    H   1.0     0.401422     0.414320     0.473897  Biso 1.000000     H
    H   1.0     0.401419     0.914316     0.473871  Biso 1.000000     H
    H   1.0     0.901442     0.414312     0.473901  Biso 1.000000     H
    H   1.0     0.901437     0.914318     0.473887  Biso 1.000000     H
    H   1.0     0.405627     0.425675     0.361902  Biso 1.000000     H
    H   1.0     0.405640     0.925675     0.361878  Biso 1.000000     H
    H   1.0     0.905645     0.425669     0.361905  Biso 1.000000     H
    H   1.0     0.905645     0.925676     0.361891  Biso 1.000000     H
    H   1.0     0.125229     0.272933     0.548467  Biso 1.000000     H
    H   1.0     0.125243     0.772954     0.548465  Biso 1.000000     H
    H   1.0     0.625219     0.272931     0.548466  Biso 1.000000     H
    H   1.0     0.625241     0.772947     0.548467  Biso 1.000000     H
    H   1.0     0.011313     0.354914     0.303697  Biso 1.000000     H
    H   1.0     0.011317     0.854925     0.303690  Biso 1.000000     H
    H   1.0     0.511317     0.354920     0.303696  Biso 1.000000     H
    H   1.0     0.511329     0.854919     0.303688  Biso 1.000000     H
    H   1.0     0.263811     0.107492     0.571050  Biso 1.000000     H
    H   1.0     0.263823     0.607500     0.571046  Biso 1.000000     H
    H   1.0     0.763808     0.107493     0.571051  Biso 1.000000     H
    H   1.0     0.763828     0.607499     0.571046  Biso 1.000000     H
    H   1.0     0.223715     0.255634     0.089015  Biso 1.000000     H
    H   1.0     0.223724     0.755652     0.089011  Biso 1.000000     H
    H   1.0     0.723715     0.255635     0.089013  Biso 1.000000     H
    H   1.0     0.723721     0.755653     0.089007  Biso 1.000000     H
    H   1.0     0.320423     0.279234     0.069795  Biso 1.000000     H
    H   1.0     0.320432     0.779250     0.069792  Biso 1.000000     H
    H   1.0     0.820421     0.279235     0.069791  Biso 1.000000     H
    H   1.0     0.820431     0.779252     0.069791  Biso 1.000000     H
    H   1.0     0.345849     0.164344     0.000000  Biso 1.000000     H
    H   1.0     0.345855     0.664359     0.000000  Biso 1.000000     H
    H   1.0     0.845846     0.164345     0.000000  Biso 1.000000     H
    H   1.0     0.845857     0.664360     0.000000  Biso 1.000000     H
    H   1.0     0.341800     0.176301     0.137492  Biso 1.000000     H
    H   1.0     0.341807     0.676318     0.137491  Biso 1.000000     H
    H   1.0     0.841800     0.176302     0.137486  Biso 1.000000     H
    H   1.0     0.841805     0.676320     0.137493  Biso 1.000000     H
    H   1.0     0.120957     0.023703     0.951458  Biso 1.000000     H
    H   1.0     0.120960     0.523722     0.951459  Biso 1.000000     H
    H   1.0     0.620957     0.023701     0.951459  Biso 1.000000     H
    H   1.0     0.620961     0.523722     0.951458  Biso 1.000000     H
    H   1.0     0.235738     0.106303     0.195997  Biso 1.000000     H
    H   1.0     0.235747     0.606319     0.195998  Biso 1.000000     H
    H   1.0     0.735738     0.106306     0.195995  Biso 1.000000     H
    H   1.0     0.735748     0.606319     0.195998  Biso 1.000000     H
    H   1.0     0.484399     0.358105     0.929259  Biso 1.000000     H
    H   1.0     0.484414     0.858120     0.929257  Biso 1.000000     H
    H   1.0     0.984404     0.358105     0.929260  Biso 1.000000     H
    H   1.0     0.984415     0.858122     0.929257  Biso 1.000000     H
    C   1.0     0.018263     0.005614     0.548706  Biso 1.000000     C
    C   1.0     0.018278     0.505632     0.548711  Biso 1.000000     C
    C   1.0     0.518260     0.005608     0.548706  Biso 1.000000     C
    C   1.0     0.518286     0.505633     0.548710  Biso 1.000000     C
    C   1.0     0.054823     0.072822     0.569935  Biso 1.000000     C
    C   1.0     0.054836     0.572843     0.569933  Biso 1.000000     C
    C   1.0     0.554824     0.072813     0.569942  Biso 1.000000     C
    C   1.0     0.554849     0.572841     0.569933  Biso 1.000000     C
    C   1.0     0.410077     0.197062     0.500672  Biso 1.000000     C
    C   1.0     0.410101     0.697090     0.500671  Biso 1.000000     C
    C   1.0     0.910086     0.197064     0.500673  Biso 1.000000     C
    C   1.0     0.910102     0.697088     0.500671  Biso 1.000000     C
    C   1.0     0.467493     0.156283     0.626164  Biso 1.000000     C
    C   1.0     0.467512     0.656306     0.626160  Biso 1.000000     C
    C   1.0     0.967505     0.156284     0.626163  Biso 1.000000     C
    C   1.0     0.967514     0.656304     0.626160  Biso 1.000000     C
    C   1.0     0.239651     0.439878     0.460114  Biso 1.000000     C
    C   1.0     0.239658     0.939889     0.460113  Biso 1.000000     C
    C   1.0     0.739654     0.439877     0.460114  Biso 1.000000     C
    C   1.0     0.739660     0.939890     0.460114  Biso 1.000000     C
    C   1.0     0.269360     0.444367     0.551286  Biso 1.000000     C
    C   1.0     0.269372     0.944378     0.551285  Biso 1.000000     C
    C   1.0     0.769367     0.444365     0.551286  Biso 1.000000     C
    C   1.0     0.769368     0.944378     0.551286  Biso 1.000000     C
    C   1.0     0.278424     0.005427     0.591432  Biso 1.000000     C
    C   1.0     0.278428     0.505433     0.591434  Biso 1.000000     C
    C   1.0     0.778422     0.005427     0.591434  Biso 1.000000     C
    C   1.0     0.778433     0.505432     0.591434  Biso 1.000000     C
    C   1.0     0.290279     0.384304     0.604850  Biso 1.000000     C
    C   1.0     0.290290     0.884313     0.604845  Biso 1.000000     C
    C   1.0     0.790286     0.384302     0.604850  Biso 1.000000     C
    C   1.0     0.790291     0.884314     0.604847  Biso 1.000000     C
    C   1.0     0.313033     0.013945     0.687964  Biso 1.000000     C
    C   1.0     0.313037     0.513954     0.687967  Biso 1.000000     C
    C   1.0     0.813034     0.013946     0.687966  Biso 1.000000     C
    C   1.0     0.813043     0.513952     0.687966  Biso 1.000000     C
    C   1.0     0.229593     0.255649     0.950395  Biso 1.000000     C
    C   1.0     0.229603     0.755665     0.950391  Biso 1.000000     C
    C   1.0     0.729589     0.255651     0.950392  Biso 1.000000     C
    C   1.0     0.729605     0.755665     0.950389  Biso 1.000000     C
    C   1.0     0.192969     0.322767    -0.070933  Biso 1.000000     C
    C   1.0     0.192979     0.822783    -0.070938  Biso 1.000000     C
    C   1.0     0.692966     0.322769    -0.070935  Biso 1.000000     C
    C   1.0     0.692981     0.822782    -0.070943  Biso 1.000000     C
    C   1.0     0.338020     0.446799    -0.000770  Biso 1.000000     C
    C   1.0     0.338031     0.946814    -0.000771  Biso 1.000000     C
    C   1.0     0.838020     0.446799    -0.000771  Biso 1.000000     C
    C   1.0     0.838032     0.946814    -0.000772  Biso 1.000000     C
    C   1.0     0.280224     0.406324     0.873427  Biso 1.000000     C
    C   1.0     0.280236     0.906338     0.873426  Biso 1.000000     C
    C   1.0     0.780223     0.406325     0.873426  Biso 1.000000     C
    C   1.0     0.780239     0.906338     0.873424  Biso 1.000000     C
    C   1.0     0.007298     0.190565     0.039259  Biso 1.000000     C
    C   1.0     0.007303     0.690583     0.039254  Biso 1.000000     C
    C   1.0     0.507308     0.190566     0.039257  Biso 1.000000     C
    C   1.0     0.507310     0.690581     0.039256  Biso 1.000000     C
    C   1.0     0.477623     0.195014     0.948080  Biso 1.000000     C
    C   1.0     0.477634     0.695029     0.948078  Biso 1.000000     C
    C   1.0     0.977641     0.195013     0.948082  Biso 1.000000     C
    C   1.0     0.977633     0.695031     0.948078  Biso 1.000000     C
    C   1.0     0.469030     0.256106     0.908269  Biso 1.000000     C
    C   1.0     0.469040     0.756121     0.908267  Biso 1.000000     C
    C   1.0     0.969037     0.256104     0.908271  Biso 1.000000     C
    C   1.0     0.969038     0.756123     0.908268  Biso 1.000000     C
    C   1.0     0.456482     0.134815     0.894387  Biso 1.000000     C
    C   1.0     0.456490     0.634828     0.894385  Biso 1.000000     C
    C   1.0     0.956497     0.134814     0.894389  Biso 1.000000     C
    C   1.0     0.956492     0.634829     0.894386  Biso 1.000000     C
    C   1.0     0.434229     0.264882     0.811872  Biso 1.000000     C
    C   1.0     0.434238     0.764897     0.811871  Biso 1.000000     C
    C   1.0     0.934235     0.264882     0.811873  Biso 1.000000     C
    C   1.0     0.934236     0.764899     0.811872  Biso 1.000000     C
    C   1.0     0.478717     0.494909     0.451140  Biso 1.000000     C
    C   1.0     0.478715     0.994907     0.451132  Biso 1.000000     C
    C   1.0     0.978731     0.494907     0.451141  Biso 1.000000     C
    C   1.0     0.978725     0.994912     0.451135  Biso 1.000000     C
    C   1.0     0.442228     0.427679     0.429914  Biso 1.000000     C
    C   1.0     0.442231     0.927677     0.429895  Biso 1.000000     C
    C   1.0     0.942246     0.427674     0.429917  Biso 1.000000     C
    C   1.0     0.942243     0.927681     0.429904  Biso 1.000000     C
    C   1.0     0.087191     0.303587     0.499320  Biso 1.000000     C
    C   1.0     0.087201     0.803604     0.499316  Biso 1.000000     C
    C   1.0     0.587185     0.303587     0.499319  Biso 1.000000     C
    C   1.0     0.587203     0.803598     0.499316  Biso 1.000000     C
    C   1.0     0.029602     0.344204     0.373780  Biso 1.000000     C
    C   1.0     0.029607     0.844215     0.373774  Biso 1.000000     C
    C   1.0     0.529603     0.344207     0.373779  Biso 1.000000     C
    C   1.0     0.529616     0.844210     0.373772  Biso 1.000000     C
    C   1.0     0.256968     0.060302     0.539762  Biso 1.000000     C
    C   1.0     0.256980     0.560309     0.539761  Biso 1.000000     C
    C   1.0     0.756968     0.060303     0.539763  Biso 1.000000     C
    C   1.0     0.756985     0.560308     0.539762  Biso 1.000000     C
    C   1.0     0.227236     0.055816     0.448593  Biso 1.000000     C
    C   1.0     0.227237     0.555824     0.448593  Biso 1.000000     C
    C   1.0     0.727232     0.055817     0.448594  Biso 1.000000     C
    C   1.0     0.727247     0.555822     0.448593  Biso 1.000000     C
    C   1.0     0.218164     0.494741     0.408480  Biso 1.000000     C
    C   1.0     0.218172     0.994752     0.408478  Biso 1.000000     C
    C   1.0     0.718170     0.494740     0.408479  Biso 1.000000     C
    C   1.0     0.718171     0.994753     0.408480  Biso 1.000000     C
    C   1.0     0.206271     0.115820     0.394846  Biso 1.000000     C
    C   1.0     0.206275     0.615829     0.394846  Biso 1.000000     C
    C   1.0     0.706272     0.115822     0.394848  Biso 1.000000     C
    C   1.0     0.706283     0.615827     0.394846  Biso 1.000000     C
    C   1.0     0.183583     0.486345     0.311957  Biso 1.000000     C
    C   1.0     0.183592     0.986355     0.311954  Biso 1.000000     C
    C   1.0     0.683591     0.486344     0.311955  Biso 1.000000     C
    C   1.0     0.683593     0.986356     0.311957  Biso 1.000000     C
    C   1.0     0.268799     0.245261     0.048072  Biso 1.000000     C
    C   1.0     0.268807     0.745277     0.048069  Biso 1.000000     C
    C   1.0     0.768797     0.245262     0.048068  Biso 1.000000     C
    C   1.0     0.768807     0.745278     0.048067  Biso 1.000000     C
    C   1.0     0.305163     0.178075     0.000000  Biso 1.000000     C
    C   1.0     0.305169     0.678091     0.000000  Biso 1.000000     C
    C   1.0     0.805161     0.178076     0.000000  Biso 1.000000     C
    C   1.0     0.805169     0.678092     0.000000  Biso 1.000000     C
    C   1.0     0.159296     0.054394     0.000000  Biso 1.000000     C
    C   1.0     0.159301     0.554411     0.000000  Biso 1.000000     C
    C   1.0     0.659296     0.054393     0.000000  Biso 1.000000     C
    C   1.0     0.659302     0.554412     0.000000  Biso 1.000000     C
    C   1.0     0.217300     0.095379     0.125931  Biso 1.000000     C
    C   1.0     0.217308     0.595394     0.125932  Biso 1.000000     C
    C   1.0     0.717300     0.095381     0.125930  Biso 1.000000     C
    C   1.0     0.717308     0.595394     0.125932  Biso 1.000000     C
    C   1.0     0.490916     0.310918     0.960293  Biso 1.000000     C
    C   1.0     0.490925     0.810933     0.960292  Biso 1.000000     C
    C   1.0     0.990922     0.310917     0.960295  Biso 1.000000     C
    C   1.0     0.990932     0.810934     0.960290  Biso 1.000000     C
    C   1.0     0.020416     0.306469     0.051479  Biso 1.000000     C
    C   1.0     0.020412     0.806487     0.051475  Biso 1.000000     C
    C   1.0     0.520418     0.306471     0.051478  Biso 1.000000     C
    C   1.0     0.520427     0.806485     0.051477  Biso 1.000000     C
    C   1.0     0.029010     0.245374     0.091304  Biso 1.000000     C
    C   1.0     0.029011     0.745392     0.091301  Biso 1.000000     C
    C   1.0     0.529014     0.245375     0.091303  Biso 1.000000     C
    C   1.0     0.529018     0.745390     0.091303  Biso 1.000000     C
    C   1.0     0.040668     0.366591     0.105539  Biso 1.000000     C
    C   1.0     0.040668     0.866605     0.105536  Biso 1.000000     C
    C   1.0     0.540672     0.366591     0.105539  Biso 1.000000     C
    C   1.0     0.540680     0.866605     0.105537  Biso 1.000000     C
    C   1.0     0.063314     0.236566     0.187838  Biso 1.000000     C
    C   1.0     0.063315     0.736582     0.187837  Biso 1.000000     C
    C   1.0     0.563317     0.236568     0.187839  Biso 1.000000     C
    C   1.0     0.563324     0.736582     0.187837  Biso 1.000000     C
    N   1.0     0.493043     0.124695     0.561663  Biso 1.000000     N
    N   1.0     0.493068     0.624723     0.561658  Biso 1.000000     N
    N   1.0     0.993059     0.124700     0.561660  Biso 1.000000     N
    N   1.0     0.993072     0.624722     0.561659  Biso 1.000000     N
    N   1.0     0.456955     0.150072     0.480830  Biso 1.000000     N
    N   1.0     0.456983     0.650104     0.480827  Biso 1.000000     N
    N   1.0     0.956969     0.150079     0.480829  Biso 1.000000     N
    N   1.0     0.956986     0.650103     0.480827  Biso 1.000000     N
    N   1.0     0.414549     0.202986     0.589506  Biso 1.000000     N
    N   1.0     0.414567     0.703008     0.589504  Biso 1.000000     N
    N   1.0     0.914556     0.202985     0.589507  Biso 1.000000     N
    N   1.0     0.914568     0.703006     0.589504  Biso 1.000000     N
    N   1.0     0.254775     0.374633     0.937726  Biso 1.000000     N
    N   1.0     0.254785     0.874649     0.937724  Biso 1.000000     N
    N   1.0     0.754772     0.374635     0.937725  Biso 1.000000     N
    N   1.0     0.754787     0.874648     0.937721  Biso 1.000000     N
    N   1.0     0.291109     0.399803     0.018755  Biso 1.000000     N
    N   1.0     0.291117     0.899819     0.018753  Biso 1.000000     N
    N   1.0     0.791107     0.399804     0.018753  Biso 1.000000     N
    N   1.0     0.791118     0.899818     0.018750  Biso 1.000000     N
    N   1.0     0.333340     0.452904     0.910414  Biso 1.000000     N
    N   1.0     0.333352     0.952917     0.910413  Biso 1.000000     N
    N   1.0     0.833341     0.452904     0.910413  Biso 1.000000     N
    N   1.0     0.833356     0.952917     0.910412  Biso 1.000000     N
    N   1.0     0.004084     0.375844     0.438259  Biso 1.000000     N
    N   1.0     0.004086     0.875854     0.438250  Biso 1.000000     N
    N   1.0     0.504084     0.375846     0.438257  Biso 1.000000     N
    N   1.0     0.504093     0.875850     0.438246  Biso 1.000000     N
    N   1.0     0.040286     0.350572     0.519125  Biso 1.000000     N
    N   1.0     0.040289     0.850585     0.519118  Biso 1.000000     N
    N   1.0     0.540281     0.350572     0.519123  Biso 1.000000     N
    N   1.0     0.540292     0.850581     0.519115  Biso 1.000000     N
    N   1.0     0.082637     0.297569     0.410484  Biso 1.000000     N
    N   1.0     0.082648     0.797584     0.410480  Biso 1.000000     N
    N   1.0     0.582635     0.297570     0.410483  Biso 1.000000     N
    N   1.0     0.582654     0.797578     0.410481  Biso 1.000000     N
    N   1.0     0.243071     0.126450     0.061349  Biso 1.000000     N
    N   1.0     0.243076     0.626467     0.061350  Biso 1.000000     N
    N   1.0     0.743070     0.126451     0.061346  Biso 1.000000     N
    N   1.0     0.743077     0.626468     0.061350  Biso 1.000000     N
    N   1.0     0.206616     0.100953     0.980560  Biso 1.000000     N
    N   1.0     0.206619     0.600971     0.980560  Biso 1.000000     N
    N   1.0     0.706615     0.100952     0.980557  Biso 1.000000     N
    N   1.0     0.706620     0.600972     0.980560  Biso 1.000000     N
    N   1.0     0.163831     0.048883     0.089372  Biso 1.000000     N
    N   1.0     0.163839     0.548898     0.089373  Biso 1.000000     N
    N   1.0     0.663832     0.048884     0.089371  Biso 1.000000     N
    N   1.0     0.663840     0.548898     0.089372  Biso 1.000000     N
    O   1.0     0.330070     0.340989     0.568873  Biso 1.000000     O
    O   1.0     0.330075     0.840995     0.568866  Biso 1.000000     O
    O   1.0     0.830076     0.340986     0.568874  Biso 1.000000     O
    O   1.0     0.830085     0.841001     0.568871  Biso 1.000000     O
    O   1.0     0.270716     0.377679     0.676934  Biso 1.000000     O
    O   1.0     0.270720     0.877687     0.676926  Biso 1.000000     O
    O   1.0     0.770720     0.377678     0.676933  Biso 1.000000     O
    O   1.0     0.770726     0.877687     0.676930  Biso 1.000000     O
    O   1.0     0.385259     0.492189     0.722777  Biso 1.000000     O
    O   1.0     0.385263     0.992196     0.722774  Biso 1.000000     O
    O   1.0     0.885265     0.492188     0.722777  Biso 1.000000     O
    O   1.0     0.885266     0.992198     0.722772  Biso 1.000000     O
    O   1.0     0.270738     0.044854     0.734042  Biso 1.000000     O
    O   1.0     0.270746     0.544871     0.734042  Biso 1.000000     O
    O   1.0     0.770744     0.044858     0.734046  Biso 1.000000     O
    O   1.0     0.770753     0.544869     0.734042  Biso 1.000000     O
    O   1.0     0.416485     0.091702     0.930296  Biso 1.000000     O
    O   1.0     0.416488     0.591718     0.930294  Biso 1.000000     O
    O   1.0     0.916491     0.091707     0.930294  Biso 1.000000     O
    O   1.0     0.916496     0.591715     0.930295  Biso 1.000000     O
    O   1.0    -0.023775     0.127813     0.822451  Biso 1.000000     O
    O   1.0    -0.023765     0.627825     0.822457  Biso 1.000000     O
    O   1.0     0.476244     0.127813     0.822456  Biso 1.000000     O
    O   1.0     0.476245     0.627825     0.822451  Biso 1.000000     O
    O   1.0     0.362513     0.242125     0.776812  Biso 1.000000     O
    O   1.0     0.362522     0.742140     0.776810  Biso 1.000000     O
    O   1.0     0.862517     0.242127     0.776813  Biso 1.000000     O
    O   1.0     0.862522     0.742140     0.776809  Biso 1.000000     O
    O   1.0     0.475638     0.296874     0.766149  Biso 1.000000     O
    O   1.0     0.475646     0.796891     0.766149  Biso 1.000000     O
    O   1.0     0.975643     0.296875     0.766151  Biso 1.000000     O
    O   1.0     0.975650     0.796888     0.766151  Biso 1.000000     O
    O   1.0     0.166306     0.159143     0.430602  Biso 1.000000     O
    O   1.0     0.166314     0.659155     0.430602  Biso 1.000000     O
    O   1.0     0.666313     0.159150     0.430605  Biso 1.000000     O
    O   1.0     0.666320     0.659150     0.430604  Biso 1.000000     O
    O   1.0     0.225937     0.122321     0.322807  Biso 1.000000     O
    O   1.0     0.225946     0.622328     0.322810  Biso 1.000000     O
    O   1.0     0.725941     0.122321     0.322811  Biso 1.000000     O
    O   1.0     0.725949     0.622328     0.322808  Biso 1.000000     O
    O   1.0     0.111323     0.008274     0.277352  Biso 1.000000     O
    O   1.0     0.111326     0.508283     0.277350  Biso 1.000000     O
    O   1.0     0.611326     0.008276     0.277350  Biso 1.000000     O
    O   1.0     0.611333     0.508282     0.277350  Biso 1.000000     O
    O   1.0     0.225779     0.455660     0.265646  Biso 1.000000     O
    O   1.0     0.225785     0.955670     0.265641  Biso 1.000000     O
    O   1.0     0.725785     0.455658     0.265644  Biso 1.000000     O
    O   1.0     0.725791     0.955673     0.265646  Biso 1.000000     O
    O   1.0     0.079573     0.410593     0.069837  Biso 1.000000     O
    O   1.0     0.079579     0.910603     0.069834  Biso 1.000000     O
    O   1.0     0.579581     0.410590     0.069835  Biso 1.000000     O
    O   1.0     0.579586     0.910606     0.069833  Biso 1.000000     O
    O   1.0     0.520952     0.372485     0.177638  Biso 1.000000     O
    O   1.0     0.520958     0.872497     0.177634  Biso 1.000000     O
    O   1.0     0.000000     0.372484     0.177632  Biso 1.000000     O
    O   1.0     0.000000     0.872497     0.177636  Biso 1.000000     O
    O   1.0     0.135594     0.258101     0.223053  Biso 1.000000     O
    O   1.0     0.135599     0.758111     0.223047  Biso 1.000000     O
    O   1.0     0.635599     0.258101     0.223052  Biso 1.000000     O
    O   1.0     0.635606     0.758112     0.223051  Biso 1.000000     O
    O   1.0     0.020836     0.205524     0.233459  Biso 1.000000     O
    O   1.0     0.020843     0.705534     0.233459  Biso 1.000000     O
    O   1.0     0.520843     0.205524     0.233460  Biso 1.000000     O
    O   1.0     0.520850     0.705535     0.233458  Biso 1.000000     O
   Zn   1.0     0.378372     0.277383     0.655815  Biso 1.000000    Zn
   Zn   1.0     0.378377     0.777395     0.655815  Biso 1.000000    Zn
   Zn   1.0     0.878380     0.277381     0.655817  Biso 1.000000    Zn
   Zn   1.0     0.878385     0.777396     0.655815  Biso 1.000000    Zn
   Zn   1.0     0.368442     0.027375     0.844051  Biso 1.000000    Zn
   Zn   1.0     0.368445     0.527385     0.844055  Biso 1.000000    Zn
   Zn   1.0     0.868450     0.027376     0.844052  Biso 1.000000    Zn
   Zn   1.0     0.868453     0.527383     0.844055  Biso 1.000000    Zn
   Zn   1.0     0.118278     0.223038     0.344002  Biso 1.000000    Zn
   Zn   1.0     0.118285     0.723049     0.344001  Biso 1.000000    Zn
   Zn   1.0     0.618287     0.223043     0.344003  Biso 1.000000    Zn
   Zn   1.0     0.618293     0.723044     0.344001  Biso 1.000000    Zn
   Zn   1.0     0.127967     0.474963     0.155809  Biso 1.000000    Zn
   Zn   1.0     0.127970     0.974970     0.155811  Biso 1.000000    Zn
   Zn   1.0     0.627974     0.474961     0.155809  Biso 1.000000    Zn
   Zn   1.0     0.627977     0.974971     0.155812  Biso 1.000000    Zn
