#======================================================================

# CRYSTAL DATA

#----------------------------------------------------------------------

data_VESTA_phase_1


_pd_phase_name                         MOF
_cell_length_a                         14.07000
_cell_length_b                         15.81100
_cell_length_c                         26.04300
_cell_angle_alpha                      90.00200
_cell_angle_beta                       89.99800
_cell_angle_gamma                      93.29100
_symmetry_space_group_name_H-M         "P 1"
_symmetry_Int_Tables_number            1

loop_
_symmetry_equiv_pos_as_xyz
   "x, y, z"

loop_
   _atom_site_label
   _atom_site_occupancy
   _atom_site_fract_x
   _atom_site_fract_y
   _atom_site_fract_z
   _atom_site_adp_type
   _atom_site_B_iso_or_equiv
   _atom_site_type_symbol
    H   1.0     0.382546     0.914251     0.199287  Biso 1.000000     H
    H   1.0     0.335194     0.846176     0.248813  Biso 1.000000     H
    H   1.0     0.429088     0.812341     0.208839  Biso 1.000000     H
    H   1.0     0.435234     0.031051     0.259517  Biso 1.000000     H
    H   1.0     0.503301     0.003410     0.314479  Biso 1.000000     H
    H   1.0     0.379254     0.970393     0.310097  Biso 1.000000     H
    H   1.0     0.679051     0.893896     0.070851  Biso 1.000000     H
    H   1.0     0.608208     0.494806     0.300751  Biso 1.000000     H
    H   1.0     0.242899     0.525369     0.369934  Biso 1.000000     H
    H   1.0     0.329312     0.306085     0.436960  Biso 1.000000     H
    H   1.0     0.863104     0.201302     0.204185  Biso 1.000000     H
    H   1.0     0.555699     0.749348     0.349875  Biso 1.000000     H
    H   1.0     0.231852     0.214822     0.374474  Biso 1.000000     H
    H   1.0     0.895687     0.795261     0.203575  Biso 1.000000     H
    H   1.0     0.502973     0.441907     0.373288  Biso 1.000000     H
    H   1.0     0.146274     0.131324     0.165650  Biso 1.000000     H
    H   1.0     0.076358     0.056899     0.087765  Biso 1.000000     H
    H   1.0     0.804462     0.123696     0.125170  Biso 1.000000     H
    H   1.0     0.141810     0.444760     0.304989  Biso 1.000000     H
    H   1.0     0.614661     0.789598     0.136090  Biso 1.000000     H
    H   1.0     0.950109     0.895980     0.133858  Biso 1.000000     H
    H   1.0     0.453926     0.685508     0.419369  Biso 1.000000     H
    H   1.0     0.391348     0.334455     0.122686  Biso 1.000000     H
    H   1.0     0.298035     0.265824     0.096179  Biso 1.000000     H
    H   1.0     0.319067     0.266964     0.163842  Biso 1.000000     H
    H   1.0     0.328886     0.463318     0.089935  Biso 1.000000     H
    H   1.0     0.209213     0.487288     0.105931  Biso 1.000000     H
    H   1.0     0.230625     0.408227     0.058778  Biso 1.000000     H
    H   1.0     0.862261     0.543298     0.228063  Biso 1.000000     H
    H   1.0     0.931967     0.500908     0.277974  Biso 1.000000     H
    H   1.0     0.863497     0.431347     0.237069  Biso 1.000000     H
    H   1.0     0.935700     0.591378     0.160703  Biso 1.000000     H
    H   1.0     0.000000     0.534938     0.128619  Biso 1.000000     H
    H   1.0     0.057079     0.606690     0.179357  Biso 1.000000     H
    H   1.0     0.783415     0.028835     0.392701  Biso 1.000000     H
    H   1.0     0.677425     0.973192     0.415143  Biso 1.000000     H
    H   1.0     0.677949     0.024716     0.354232  Biso 1.000000     H
    H   1.0     0.884538     0.923936     0.392448  Biso 1.000000     H
    H   1.0     0.870589     0.838755     0.347725  Biso 1.000000     H
    H   1.0     0.813550     0.830228     0.408661  Biso 1.000000     H
    H   1.0     0.617443     0.585736     0.699307  Biso 1.000000     H
    H   1.0     0.664778     0.653824     0.748832  Biso 1.000000     H
    H   1.0     0.570903     0.687651     0.708847  Biso 1.000000     H
    H   1.0     0.564697     0.468922     0.759535  Biso 1.000000     H
    H   1.0     0.496630     0.496587     0.814496  Biso 1.000000     H
    H   1.0     0.620691     0.529615     0.810111  Biso 1.000000     H
    H   1.0     0.320937     0.606115     0.570863  Biso 1.000000     H
    H   1.0     0.391814     0.000000     0.800758  Biso 1.000000     H
    H   1.0     0.757072     0.974675     0.869927  Biso 1.000000     H
    H   1.0     0.670685     0.193929     0.936982  Biso 1.000000     H
    H   1.0     0.136868     0.298699     0.704178  Biso 1.000000     H
    H   1.0     0.444300     0.750687     0.849875  Biso 1.000000     H
    H   1.0     0.768143     0.285192     0.874495  Biso 1.000000     H
    H   1.0     0.104296     0.704822     0.703574  Biso 1.000000     H
    H   1.0     0.497031     0.058099     0.873297  Biso 1.000000     H
    H   1.0     0.853702     0.368691     0.665663  Biso 1.000000     H
    H   1.0     0.923616     0.443114     0.587777  Biso 1.000000     H
    H   1.0     0.195510     0.376309     0.625163  Biso 1.000000     H
    H   1.0     0.858148     0.055254     0.804981  Biso 1.000000     H
    H   1.0     0.385338     0.710411     0.636102  Biso 1.000000     H
    H   1.0     0.049866     0.604100     0.633857  Biso 1.000000     H
    H   1.0     0.546066     0.814526     0.919372  Biso 1.000000     H
    H   1.0     0.608631     0.165566     0.622701  Biso 1.000000     H
    H   1.0     0.701943     0.234193     0.596188  Biso 1.000000     H
    H   1.0     0.680918     0.233058     0.663853  Biso 1.000000     H
    H   1.0     0.671093     0.036702     0.589939  Biso 1.000000     H
    H   1.0     0.790773     0.000000     0.605931  Biso 1.000000     H
    H   1.0     0.769357     0.091791     0.558781  Biso 1.000000     H
    H   1.0     0.137712     0.956736     0.728056  Biso 1.000000     H
    H   1.0     0.067995     0.999114     0.777971  Biso 1.000000     H
    H   1.0     0.136462     0.068656     0.737075  Biso 1.000000     H
    H   1.0     0.064289     0.908678     0.660681  Biso 1.000000     H
    H   1.0    -0.025223     0.965092     0.628623  Biso 1.000000     H
    H   1.0     0.942925     0.893329     0.679363  Biso 1.000000     H
    H   1.0     0.216484     0.471200     0.892701  Biso 1.000000     H
    H   1.0     0.322502     0.526848     0.915137  Biso 1.000000     H
    H   1.0     0.321947     0.475289     0.854226  Biso 1.000000     H
    H   1.0     0.115399     0.576140     0.892448  Biso 1.000000     H
    H   1.0     0.129360     0.661305     0.847719  Biso 1.000000     H
    H   1.0     0.186391     0.669850     0.908654  Biso 1.000000     H
    H   1.0     0.617432     0.085743     0.800702  Biso 1.000000     H
    H   1.0     0.664776     0.153827     0.751179  Biso 1.000000     H
    H   1.0     0.570891     0.187656     0.791161  Biso 1.000000     H
    H   1.0     0.564712     0.968950     0.740472  Biso 1.000000     H
    H   1.0     0.496655     0.996609     0.685510  Biso 1.000000     H
    H   1.0     0.620705     0.029611     0.689898  Biso 1.000000     H
    H   1.0     0.320926     0.106116     0.929150  Biso 1.000000     H
    H   1.0     0.391783     0.505214     0.699254  Biso 1.000000     H
    H   1.0     0.757079     0.474657     0.630073  Biso 1.000000     H
    H   1.0     0.670667     0.693936     0.563041  Biso 1.000000     H
    H   1.0     0.136871     0.798719     0.795819  Biso 1.000000     H
    H   1.0     0.444281     0.250670     0.650129  Biso 1.000000     H
    H   1.0     0.768125     0.785203     0.625527  Biso 1.000000     H
    H   1.0     0.104294     0.204778     0.796432  Biso 1.000000     H
    H   1.0     0.497013     0.558111     0.626714  Biso 1.000000     H
    H   1.0     0.853704     0.868707     0.834349  Biso 1.000000     H
    H   1.0     0.923617     0.943130     0.912235  Biso 1.000000     H
    H   1.0     0.195512     0.876327     0.874835  Biso 1.000000     H
    H   1.0     0.858165     0.555269     0.695017  Biso 1.000000     H
    H   1.0     0.385322     0.210416     0.863914  Biso 1.000000     H
    H   1.0     0.049867     0.104055     0.866146  Biso 1.000000     H
    H   1.0     0.546050     0.314507     0.580632  Biso 1.000000     H
    H   1.0     0.608632     0.665567     0.877316  Biso 1.000000     H
    H   1.0     0.701942     0.734199     0.903826  Biso 1.000000     H
    H   1.0     0.680913     0.733062     0.836163  Biso 1.000000     H
    H   1.0     0.671097     0.536702     0.910063  Biso 1.000000     H
    H   1.0     0.790771     0.512737     0.894068  Biso 1.000000     H
    H   1.0     0.769353     0.591793     0.941224  Biso 1.000000     H
    H   1.0     0.137716     0.456732     0.771931  Biso 1.000000     H
    H   1.0     0.068004     0.499117     0.722020  Biso 1.000000     H
    H   1.0     0.136473     0.568683     0.762924  Biso 1.000000     H
    H   1.0     0.064278     0.408645     0.839289  Biso 1.000000     H
    H   1.0    -0.025181     0.465086     0.871378  Biso 1.000000     H
    H   1.0     0.942895     0.393337     0.820641  Biso 1.000000     H
    H   1.0     0.216533     0.971206     0.607295  Biso 1.000000     H
    H   1.0     0.322536     0.026840     0.584862  Biso 1.000000     H
    H   1.0     0.321992     0.975306     0.645770  Biso 1.000000     H
    H   1.0     0.115419     0.076106     0.607558  Biso 1.000000     H
    H   1.0     0.129376     0.161283     0.652283  Biso 1.000000     H
    H   1.0     0.186411     0.169812     0.591346  Biso 1.000000     H
    H   1.0     0.382525     0.414322     0.300694  Biso 1.000000     H
    H   1.0     0.335186     0.346227     0.251173  Biso 1.000000     H
    H   1.0     0.429055     0.312401     0.291163  Biso 1.000000     H
    H   1.0     0.435278     0.531119     0.240458  Biso 1.000000     H
    H   1.0     0.503347     0.503441     0.185501  Biso 1.000000     H
    H   1.0     0.379285     0.470419     0.189885  Biso 1.000000     H
    H   1.0     0.679043     0.393903     0.429139  Biso 1.000000     H
    H   1.0     0.608127    -0.005219     0.199245  Biso 1.000000     H
    H   1.0     0.242915     0.025352     0.130077  Biso 1.000000     H
    H   1.0     0.329269     0.806094     0.063012  Biso 1.000000     H
    H   1.0     0.863111     0.701327     0.295825  Biso 1.000000     H
    H   1.0     0.555611     0.249327     0.150143  Biso 1.000000     H
    H   1.0     0.231814     0.714835     0.125502  Biso 1.000000     H
    H   1.0     0.895671     0.295201     0.296420  Biso 1.000000     H
    H   1.0     0.502945     0.941916     0.126692  Biso 1.000000     H
    H   1.0     0.146278     0.631335     0.334338  Biso 1.000000     H
    H   1.0     0.076364     0.556910     0.412225  Biso 1.000000     H
    H   1.0     0.804470     0.623714     0.374839  Biso 1.000000     H
    H   1.0     0.141844     0.944777     0.195026  Biso 1.000000     H
    H   1.0     0.614636     0.289611     0.363900  Biso 1.000000     H
    H   1.0     0.950109     0.395920     0.366136  Biso 1.000000     H
    H   1.0     0.453885     0.185490     0.080630  Biso 1.000000     H
    H   1.0     0.391353     0.834454     0.377298  Biso 1.000000     H
    H   1.0     0.298043     0.765828     0.403814  Biso 1.000000     H
    H   1.0     0.319060     0.766963     0.336148  Biso 1.000000     H
    H   1.0     0.328896     0.963319     0.410063  Biso 1.000000     H
    H   1.0     0.209214    -0.012737     0.394074  Biso 1.000000     H
    H   1.0     0.230635     0.908231     0.441224  Biso 1.000000     H
    H   1.0     0.862271     0.043295     0.271953  Biso 1.000000     H
    H   1.0     0.931985     0.000914     0.222038  Biso 1.000000     H
    H   1.0     0.863516     0.931374     0.262935  Biso 1.000000     H
    H   1.0     0.935689     0.091339     0.339336  Biso 1.000000     H
    H   1.0     0.000000     0.034938     0.371381  Biso 1.000000     H
    H   1.0     0.057042     0.106708     0.320638  Biso 1.000000     H
    H   1.0     0.783503     0.528802     0.107307  Biso 1.000000     H
    H   1.0     0.677478     0.473175     0.084863  Biso 1.000000     H
    H   1.0     0.678035     0.524720     0.145779  Biso 1.000000     H
    H   1.0     0.884564     0.423850     0.107554  Biso 1.000000     H
    H   1.0     0.870595     0.338688     0.152286  Biso 1.000000     H
    H   1.0     0.813572     0.330139     0.091349  Biso 1.000000     H
    C   1.0     0.400536     0.866834     0.228003  Biso 1.000000     C
    C   1.0     0.446020     0.981843     0.288501  Biso 1.000000     C
    C   1.0     0.725252     0.870369     0.100530  Biso 1.000000     C
    C   1.0     0.181560     0.323411     0.334758  Biso 1.000000     C
    C   1.0     0.574066     0.538547     0.326114  Biso 1.000000     C
    C   1.0     0.008498     0.167853     0.191331  Biso 1.000000     C
    C   1.0     0.239458     0.456329     0.369029  Biso 1.000000     C
    C   1.0     0.287233     0.333883     0.406816  Biso 1.000000     C
    C   1.0     0.912016     0.168721     0.179802  Biso 1.000000     C
    C   1.0     0.751539     0.784177     0.173730  Biso 1.000000     C
    C   1.0     0.545378     0.680845     0.352776  Biso 1.000000     C
    C   1.0     0.233673     0.283671     0.372451  Biso 1.000000     C
    C   1.0     0.846410     0.814259     0.174138  Biso 1.000000     C
    C   1.0     0.515187     0.509450     0.365860  Biso 1.000000     C
    C   1.0     0.070192     0.129477     0.157970  Biso 1.000000     C
    C   1.0     0.031244     0.088715     0.114758  Biso 1.000000     C
    C   1.0     0.183017     0.368513     0.171963  Biso 1.000000     C
    C   1.0     0.046712     0.426475     0.204650  Biso 1.000000     C
    C   1.0     0.588154     0.625856     0.318952  Biso 1.000000     C
    C   1.0     0.879566     0.126122     0.135808  Biso 1.000000     C
    C   1.0     0.183361     0.411665     0.332976  Biso 1.000000     C
    C   1.0     0.689136     0.812271     0.136804  Biso 1.000000     C
    C   1.0     0.876130     0.871655     0.136035  Biso 1.000000     C
    C   1.0     0.487887     0.645389     0.391609  Biso 1.000000     C
    C   1.0     0.319148     0.306139     0.129291  Biso 1.000000     C
    C   1.0     0.255496     0.436949     0.095309  Biso 1.000000     C
    C   1.0     0.906665     0.491296     0.238383  Biso 1.000000     C
    C   1.0     0.002324     0.559637     0.165660  Biso 1.000000     C
    C   1.0     0.696633     0.871510     0.319881  Biso 1.000000     C
    C   1.0     0.554199     0.866560     0.273380  Biso 1.000000     C
    C   1.0     0.720716     0.989173     0.380802  Biso 1.000000     C
    C   1.0     0.834745     0.874224     0.377307  Biso 1.000000     C
    C   1.0     0.599443     0.633162     0.728018  Biso 1.000000     C
    C   1.0     0.553926     0.518169     0.788516  Biso 1.000000     C
    C   1.0     0.274736     0.629658     0.600539  Biso 1.000000     C
    C   1.0     0.818417     0.176604     0.834764  Biso 1.000000     C
    C   1.0     0.425949     0.961490     0.826120  Biso 1.000000     C
    C   1.0     0.991478     0.332157     0.691335  Biso 1.000000     C
    C   1.0     0.760511     0.043686     0.869029  Biso 1.000000     C
    C   1.0     0.712756     0.166131     0.906831  Biso 1.000000     C
    C   1.0     0.087958     0.331284     0.679799  Biso 1.000000     C
    C   1.0     0.248453     0.715868     0.673736  Biso 1.000000     C
    C   1.0     0.454624     0.819191     0.852779  Biso 1.000000     C
    C   1.0     0.766314     0.216344     0.872466  Biso 1.000000     C
    C   1.0     0.153574     0.685807     0.674140  Biso 1.000000     C
    C   1.0     0.484824     0.990585     0.865867  Biso 1.000000     C
    C   1.0     0.929783     0.370536     0.657979  Biso 1.000000     C
    C   1.0     0.968730     0.411297     0.614767  Biso 1.000000     C
    C   1.0     0.816960     0.131503     0.671968  Biso 1.000000     C
    C   1.0     0.953261     0.073536     0.704649  Biso 1.000000     C
    C   1.0     0.411855     0.874180     0.818956  Biso 1.000000     C
    C   1.0     0.120408     0.373884     0.635806  Biso 1.000000     C
    C   1.0     0.816606     0.088350     0.832975  Biso 1.000000     C
    C   1.0     0.310857     0.687754     0.636814  Biso 1.000000     C
    C   1.0     0.123850     0.628410     0.636037  Biso 1.000000     C
    C   1.0     0.512112     0.854645     0.891613  Biso 1.000000     C
    C   1.0     0.680832     0.193880     0.629302  Biso 1.000000     C
    C   1.0     0.744483     0.063069     0.595312  Biso 1.000000     C
    C   1.0     0.093305     0.000000     0.738382  Biso 1.000000     C
    C   1.0     0.997655     0.940398     0.665657  Biso 1.000000     C
    C   1.0     0.303324     0.628536     0.819885  Biso 1.000000     C
    C   1.0     0.445766     0.633461     0.773387  Biso 1.000000     C
    C   1.0     0.279203     0.510875     0.880799  Biso 1.000000     C
    C   1.0     0.165197     0.625844     0.877303  Biso 1.000000     C
    C   1.0     0.599437     0.133166     0.771991  Biso 1.000000     C
    C   1.0     0.553937     0.018165     0.711491  Biso 1.000000     C
    C   1.0     0.274726     0.129649     0.899472  Biso 1.000000     C
    C   1.0     0.818416     0.676617     0.665245  Biso 1.000000     C
    C   1.0     0.425922     0.461472     0.673890  Biso 1.000000     C
    C   1.0     0.991480     0.832175     0.808670  Biso 1.000000     C
    C   1.0     0.760520     0.543696     0.630976  Biso 1.000000     C
    C   1.0     0.712746     0.666140     0.593186  Biso 1.000000     C
    C   1.0     0.087961     0.831303     0.820202  Biso 1.000000     C
    C   1.0     0.248443     0.215850     0.826275  Biso 1.000000     C
    C   1.0     0.454603     0.319173     0.647227  Biso 1.000000     C
    C   1.0     0.766304     0.716354     0.627551  Biso 1.000000     C
    C   1.0     0.153570     0.185774     0.825868  Biso 1.000000     C
    C   1.0     0.484798     0.490568     0.634142  Biso 1.000000     C
    C   1.0     0.929785     0.870553     0.842030  Biso 1.000000     C
    C   1.0     0.968732     0.911314     0.885242  Biso 1.000000     C
    C   1.0     0.816964     0.631514     0.828039  Biso 1.000000     C
    C   1.0     0.953265     0.573552     0.795348  Biso 1.000000     C
    C   1.0     0.411831     0.374163     0.681053  Biso 1.000000     C
    C   1.0     0.120410     0.873902     0.864195  Biso 1.000000     C
    C   1.0     0.816615     0.588362     0.667028  Biso 1.000000     C
    C   1.0     0.310845     0.187748     0.863199  Biso 1.000000     C
    C   1.0     0.123847     0.128376     0.863969  Biso 1.000000     C
    C   1.0     0.512093     0.354627     0.608393  Biso 1.000000     C
    C   1.0     0.680831     0.693885     0.870712  Biso 1.000000     C
    C   1.0     0.744485     0.563073     0.904691  Biso 1.000000     C
    C   1.0     0.093308     0.508732     0.761611  Biso 1.000000     C
    C   1.0     0.997654     0.440388     0.834335  Biso 1.000000     C
    C   1.0     0.303331     0.128517     0.680123  Biso 1.000000     C
    C   1.0     0.445768     0.133454     0.726620  Biso 1.000000     C
    C   1.0     0.279235     0.010858     0.619199  Biso 1.000000     C
    C   1.0     0.165216     0.125815     0.622700  Biso 1.000000     C
    C   1.0     0.400521     0.366888     0.271987  Biso 1.000000     C
    C   1.0     0.446048     0.481866     0.211481  Biso 1.000000     C
    C   1.0     0.725242     0.370362     0.399461  Biso 1.000000     C
    C   1.0     0.181559     0.823425     0.165238  Biso 1.000000     C
    C   1.0     0.573995     0.038523     0.173883  Biso 1.000000     C
    C   1.0     0.008501     0.667868     0.308667  Biso 1.000000     C
    C   1.0     0.239469     0.956341     0.130973  Biso 1.000000     C
    C   1.0     0.287207     0.833893     0.093166  Biso 1.000000     C
    C   1.0     0.912021     0.668741     0.320204  Biso 1.000000     C
    C   1.0     0.751517     0.284154     0.326262  Biso 1.000000     C
    C   1.0     0.545304     0.180823     0.147233  Biso 1.000000     C
    C   1.0     0.233650     0.783683     0.127533  Biso 1.000000     C
    C   1.0     0.846396     0.314216     0.325856  Biso 1.000000     C
    C   1.0     0.515139     0.009429     0.134128  Biso 1.000000     C
    C   1.0     0.070196     0.629489     0.342023  Biso 1.000000     C
    C   1.0     0.031250     0.588727     0.385235  Biso 1.000000     C
    C   1.0     0.183022     0.868522     0.328037  Biso 1.000000     C
    C   1.0     0.046721     0.926491     0.295358  Biso 1.000000     C
    C   1.0     0.588074     0.125832     0.181055  Biso 1.000000     C
    C   1.0     0.879572     0.626140     0.364196  Biso 1.000000     C
    C   1.0     0.183377     0.911680     0.167029  Biso 1.000000     C
    C   1.0     0.689116     0.312267     0.363186  Biso 1.000000     C
    C   1.0     0.876124     0.371611     0.363959  Biso 1.000000     C
    C   1.0     0.487836     0.145370     0.108390  Biso 1.000000     C
    C   1.0     0.319150     0.806141     0.370700  Biso 1.000000     C
    C   1.0     0.255505     0.936953     0.404692  Biso 1.000000     C
    C   1.0     0.906676    -0.008706     0.261627  Biso 1.000000     C
    C   1.0     0.002328     0.059630     0.334351  Biso 1.000000     C
    C   1.0     0.696628     0.371465     0.180111  Biso 1.000000     C
    C   1.0     0.554197     0.366567     0.226618  Biso 1.000000     C
    C   1.0     0.720775     0.489134     0.119204  Biso 1.000000     C
    C   1.0     0.834762     0.374148     0.122698  Biso 1.000000     C
    N   1.0     0.937366     0.085277     0.104204  Biso 1.000000     N
    N   1.0     0.817106     0.899391     0.099846  Biso 1.000000     N
    N   1.0     0.471200     0.561511     0.397892  Biso 1.000000     N
    N   1.0     0.291234     0.419101     0.405035  Biso 1.000000     N
    N   1.0     0.253896     0.373690     0.135981  Biso 1.000000     N
    N   1.0     0.985842     0.490113     0.202106  Biso 1.000000     N
    N   1.0     0.752723     0.913788     0.355377  Biso 1.000000     N
    N   1.0     0.471342     0.904056     0.263321  Biso 1.000000     N
    N   1.0     0.025539     0.365864     0.241145  Biso 1.000000     N
    N   1.0     0.185335     0.302207     0.205714  Biso 1.000000     N
    N   1.0     0.119998     0.429762     0.170972  Biso 1.000000     N
    N   1.0     0.732075     0.800013     0.299679  Biso 1.000000     N
    N   1.0     0.568430     0.793580     0.246918  Biso 1.000000     N
    N   1.0     0.612742     0.904900     0.308691  Biso 1.000000     N
    N   1.0     0.062607     0.414732     0.604207  Biso 1.000000     N
    N   1.0     0.182876     0.600654     0.599852  Biso 1.000000     N
    N   1.0     0.528803     0.938523     0.897897  Biso 1.000000     N
    N   1.0     0.708745     0.080913     0.905043  Biso 1.000000     N
    N   1.0     0.746083     0.126329     0.635986  Biso 1.000000     N
    N   1.0     0.014135     0.000000     0.702103  Biso 1.000000     N
    N   1.0     0.247218     0.586267     0.855377  Biso 1.000000     N
    N   1.0     0.528621     0.595954     0.763332  Biso 1.000000     N
    N   1.0     0.974434     0.134148     0.741146  Biso 1.000000     N
    N   1.0     0.814641     0.197808     0.705722  Biso 1.000000     N
    N   1.0     0.879975     0.070252     0.670973  Biso 1.000000     N
    N   1.0     0.267904     0.700042     0.799686  Biso 1.000000     N
    N   1.0     0.431552     0.706438     0.746922  Biso 1.000000     N
    N   1.0     0.387210     0.595131     0.808695  Biso 1.000000     N
    N   1.0     0.062608     0.914749     0.895798  Biso 1.000000     N
    N   1.0     0.182870     0.100633     0.900156  Biso 1.000000     N
    N   1.0     0.528782     0.438506     0.602110  Biso 1.000000     N
    N   1.0     0.708745     0.580922     0.594969  Biso 1.000000     N
    N   1.0     0.746086     0.626337     0.864022  Biso 1.000000     N
    N   1.0     0.014133     0.509912     0.797890  Biso 1.000000     N
    N   1.0     0.247235     0.086244     0.644627  Biso 1.000000     N
    N   1.0     0.528623     0.095951     0.736675  Biso 1.000000     N
    N   1.0     0.974438     0.634165     0.758855  Biso 1.000000     N
    N   1.0     0.814646     0.697824     0.794290  Biso 1.000000     N
    N   1.0     0.879981     0.570265     0.829027  Biso 1.000000     N
    N   1.0     0.267897     0.200016     0.700327  Biso 1.000000     N
    N   1.0     0.431546     0.206433     0.753084  Biso 1.000000     N
    N   1.0     0.387219     0.095119     0.691310  Biso 1.000000     N
    N   1.0     0.937373     0.585291     0.395794  Biso 1.000000     N
    N   1.0     0.817103     0.399365     0.400146  Biso 1.000000     N
    N   1.0     0.471162     0.061491     0.102097  Biso 1.000000     N
    N   1.0     0.291226     0.919111     0.094956  Biso 1.000000     N
    N   1.0     0.253900     0.873693     0.364018  Biso 1.000000     N
    N   1.0     0.985846    -0.009898     0.297906  Biso 1.000000     N
    N   1.0     0.752742     0.413730     0.144621  Biso 1.000000     N
    N   1.0     0.471348     0.404084     0.236671  Biso 1.000000     N
    N   1.0     0.025546     0.865880     0.258861  Biso 1.000000     N
    N   1.0     0.185338     0.802216     0.294283  Biso 1.000000     N
    N   1.0     0.120007     0.929773     0.329033  Biso 1.000000     N
    N   1.0     0.732033     0.299949     0.200304  Biso 1.000000     N
    N   1.0     0.568410     0.293596     0.253090  Biso 1.000000     N
    N   1.0     0.612752     0.404884     0.191304  Biso 1.000000     N
    O   1.0     0.041239     0.199492     0.238507  Biso 1.000000     O
    O   1.0     0.128749     0.270173     0.302108  Biso 1.000000     O
    O   1.0     0.644975     0.650887     0.277773  Biso 1.000000     O
    O   1.0     0.720633     0.722075     0.209287  Biso 1.000000     O
    O   1.0     0.958740     0.300521     0.738511  Biso 1.000000     O
    O   1.0     0.871227     0.229843     0.802114  Biso 1.000000     O
    O   1.0     0.355034     0.849151     0.777777  Biso 1.000000     O
    O   1.0     0.279365     0.777968     0.709295  Biso 1.000000     O
    O   1.0     0.958742     0.800537     0.761494  Biso 1.000000     O
    O   1.0     0.871226     0.729856     0.697895  Biso 1.000000     O
    O   1.0     0.355014     0.349135     0.722234  Biso 1.000000     O
    O   1.0     0.279354     0.277952     0.790719  Biso 1.000000     O
    O   1.0     0.041239     0.699507     0.261491  Biso 1.000000     O
    O   1.0     0.128754     0.770188     0.197891  Biso 1.000000     O
    O   1.0     0.644884     0.150858     0.222239  Biso 1.000000     O
    O   1.0     0.720605     0.222055     0.290704  Biso 1.000000     O
    P   1.0     0.097123     0.291580     0.243731  Biso 1.000000     P
    P   1.0     0.663941     0.749308     0.260128  Biso 1.000000     P
    P   1.0     0.902853     0.208434     0.743736  Biso 1.000000     P
    P   1.0     0.336050     0.750730     0.760133  Biso 1.000000     P
    P   1.0     0.902855     0.708450     0.756271  Biso 1.000000     P
    P   1.0     0.336039     0.250714     0.739878  Biso 1.000000     P
    P   1.0     0.097126     0.791594     0.256269  Biso 1.000000     P
    P   1.0     0.663895     0.249283     0.239871  Biso 1.000000     P
   Cl   1.0     0.716054     0.079692     0.042256  Biso 1.000000    Cl
   Cl   1.0     0.764027     0.893855     0.966370  Biso 1.000000    Cl
   Cl   1.0     0.965597     0.090062     0.964608  Biso 1.000000    Cl
   Cl   1.0     0.511219     0.887497     0.026288  Biso 1.000000    Cl
   Cl   1.0     0.283916     0.420316     0.542254  Biso 1.000000    Cl
   Cl   1.0     0.235957     0.606188     0.466367  Biso 1.000000    Cl
   Cl   1.0     0.034374     0.409949     0.464596  Biso 1.000000    Cl
   Cl   1.0     0.488768     0.612531     0.526302  Biso 1.000000    Cl
   Cl   1.0     0.283915     0.920323     0.957745  Biso 1.000000    Cl
   Cl   1.0     0.235949     0.106167     0.033628  Biso 1.000000    Cl
   Cl   1.0     0.034376     0.909963     0.035395  Biso 1.000000    Cl
   Cl   1.0     0.488755     0.112519     0.973706  Biso 1.000000    Cl
   Cl   1.0     0.716064     0.579701     0.457747  Biso 1.000000    Cl
   Cl   1.0     0.764025     0.393833     0.533635  Biso 1.000000    Cl
   Cl   1.0     0.965606     0.590070     0.535403  Biso 1.000000    Cl
   Cl   1.0     0.511213     0.387487     0.473701  Biso 1.000000    Cl
   Cd   1.0     0.873249     0.995526     0.032378  Biso 1.000000    Cd
   Cd   1.0     0.620828     0.996134     0.970063  Biso 1.000000    Cd
   Cd   1.0     0.126735     0.504515     0.532382  Biso 1.000000    Cd
   Cd   1.0     0.379157     0.503907     0.470055  Biso 1.000000    Cd
   Cd   1.0     0.126723     0.004498     0.967624  Biso 1.000000    Cd
   Cd   1.0     0.379146     0.003884     0.029932  Biso 1.000000    Cd
   Cd   1.0     0.873246     0.495503     0.467617  Biso 1.000000    Cd
   Cd   1.0     0.620825     0.496111     0.529947  Biso 1.000000    Cd
