#======================================================================

# CRYSTAL DATA

#----------------------------------------------------------------------

data_VESTA_phase_1


_pd_phase_name                         MOF
_cell_length_a                         15.49900
_cell_length_b                         15.65000
_cell_length_c                         16.80200
_cell_angle_alpha                      77.18100
_cell_angle_beta                       88.18700
_cell_angle_gamma                      62.75000
_symmetry_space_group_name_H-M         "P 1"
_symmetry_Int_Tables_number            1

loop_
_symmetry_equiv_pos_as_xyz
   "x, y, z"

loop_
   _atom_site_label
   _atom_site_occupancy
   _atom_site_fract_x
   _atom_site_fract_y
   _atom_site_fract_z
   _atom_site_adp_type
   _atom_site_B_iso_or_equiv
   _atom_site_type_symbol
    H   1.0     0.183940     0.166471     0.172787  Biso 1.000000     H
    H   1.0     0.088157     0.146057     0.220841  Biso 1.000000     H
    H   1.0     0.111782     0.241535     0.239840  Biso 1.000000     H
    H   1.0     0.141394     0.154385     0.395335  Biso 1.000000     H
    H   1.0     0.115478     0.063515     0.369199  Biso 1.000000     H
    H   1.0     0.230611     0.026898     0.421152  Biso 1.000000     H
    H   1.0     0.494673     0.769634     0.516935  Biso 1.000000     H
    H   1.0     0.500649     0.868704     0.548355  Biso 1.000000     H
    H   1.0     0.395864     0.892147     0.487525  Biso 1.000000     H
    H   1.0     0.659882     0.832862     0.470449  Biso 1.000000     H
    H   1.0     0.645504     0.731713     0.452348  Biso 1.000000     H
    H   1.0     0.651124     0.821622     0.367622  Biso 1.000000     H
    H   1.0     0.447736     0.838941     0.252045  Biso 1.000000     H
    H   1.0     0.434692     0.695044     0.226297  Biso 1.000000     H
    H   1.0     0.480503     0.761504     0.981156  Biso 1.000000     H
    H   1.0     0.495092     0.910633     0.995608  Biso 1.000000     H
    H   1.0     0.339306     0.244759     0.206246  Biso 1.000000     H
    H   1.0     0.348236     0.373143     0.269056  Biso 1.000000     H
    H   1.0     0.648502     0.242391     0.268625  Biso 1.000000     H
    H   1.0     0.652557     0.107945     0.206797  Biso 1.000000     H
    H   1.0     0.675502     0.208871     0.597780  Biso 1.000000     H
    H   1.0     0.769362     0.062750     0.713656  Biso 1.000000     H
    H   1.0     0.923789     0.215128     0.768686  Biso 1.000000     H
    H   1.0     0.819166     0.358198     0.654031  Biso 1.000000     H
    H   1.0     0.177307     0.759991     0.823701  Biso 1.000000     H
    H   1.0     0.078582     0.873129     0.039682  Biso 1.000000     H
    H   1.0     0.106124     0.000000     0.541487  Biso 1.000000     H
    H   1.0     0.210027     0.889328     0.574302  Biso 1.000000     H
    H   1.0     0.100922     0.918676     0.626032  Biso 1.000000     H
    H   1.0     0.279048     0.041511     0.669758  Biso 1.000000     H
    H   1.0     0.316527     0.959513     0.602292  Biso 1.000000     H
    H   1.0     0.221066     0.082746     0.568507  Biso 1.000000     H
    H   1.0     0.104290     0.073405     0.990426  Biso 1.000000     H
    H   1.0     0.219049     0.066236     0.000000  Biso 1.000000     H
    H   1.0     0.119060     0.182709     0.969529  Biso 1.000000     H
    H   1.0     0.251774     0.179696     0.867425  Biso 1.000000     H
    H   1.0     0.333701     0.051928     0.905590  Biso 1.000000     H
    H   1.0     0.282010     0.095288     0.802265  Biso 1.000000     H
    H   1.0     0.243365     0.748300     0.111341  Biso 1.000000     H
    H   1.0     0.337051     0.640639     0.903392  Biso 1.000000     H
    H   1.0     0.815835     0.833625     0.826835  Biso 1.000000     H
    H   1.0     0.911696     0.854007     0.778915  Biso 1.000000     H
    H   1.0     0.888126     0.758526     0.759855  Biso 1.000000     H
    H   1.0     0.858774     0.845631     0.604352  Biso 1.000000     H
    H   1.0     0.884604     0.936525     0.630555  Biso 1.000000     H
    H   1.0     0.769550     0.973118     0.578470  Biso 1.000000     H
    H   1.0     0.505411     0.230578     0.482421  Biso 1.000000     H
    H   1.0     0.499562     0.131428     0.451021  Biso 1.000000     H
    H   1.0     0.604256     0.108100     0.511922  Biso 1.000000     H
    H   1.0     0.340191     0.167247     0.528972  Biso 1.000000     H
    H   1.0     0.354538     0.268475     0.546946  Biso 1.000000     H
    H   1.0     0.348983     0.178609     0.631745  Biso 1.000000     H
    H   1.0     0.552202     0.161302     0.747442  Biso 1.000000     H
    H   1.0     0.565484     0.304978     0.773453  Biso 1.000000     H
    H   1.0     0.519520     0.238231     0.018521  Biso 1.000000     H
    H   1.0     0.504723     0.089303     0.003811  Biso 1.000000     H
    H   1.0     0.660528     0.755527     0.793071  Biso 1.000000     H
    H   1.0     0.651770     0.626828     0.730584  Biso 1.000000     H
    H   1.0     0.351530     0.757207     0.731207  Biso 1.000000     H
    H   1.0     0.347319     0.891938     0.792753  Biso 1.000000     H
    H   1.0     0.324573     0.790996     0.402074  Biso 1.000000     H
    H   1.0     0.230671     0.937167     0.286238  Biso 1.000000     H
    H   1.0     0.076251     0.784802     0.231161  Biso 1.000000     H
    H   1.0     0.180915     0.641689     0.345775  Biso 1.000000     H
    H   1.0     0.822648     0.239957     0.176162  Biso 1.000000     H
    H   1.0     0.921515     0.126765     0.960222  Biso 1.000000     H
    H   1.0     0.893920    -0.007997     0.458372  Biso 1.000000     H
    H   1.0     0.789981     0.110583     0.425627  Biso 1.000000     H
    H   1.0     0.899044     0.081314     0.373849  Biso 1.000000     H
    H   1.0     0.720909     0.958513     0.330084  Biso 1.000000     H
    H   1.0     0.683444     0.040484     0.397571  Biso 1.000000     H
    H   1.0     0.778883     0.917240     0.431342  Biso 1.000000     H
    H   1.0     0.895758     0.926514     0.009478  Biso 1.000000     H
    H   1.0     0.780992     0.933716    -0.015625  Biso 1.000000     H
    H   1.0     0.880953     0.817230     0.030368  Biso 1.000000     H
    H   1.0     0.748213     0.820281     0.132460  Biso 1.000000     H
    H   1.0     0.666306     0.948048     0.094255  Biso 1.000000     H
    H   1.0     0.717956     0.904718     0.197594  Biso 1.000000     H
    H   1.0     0.756750     0.251561     0.888511  Biso 1.000000     H
    H   1.0     0.662930     0.359262     0.096423  Biso 1.000000     H
    C   1.0     0.313263     0.049147     0.289845  Biso 1.000000     C
    C   1.0     0.467746     0.936659     0.354901  Biso 1.000000     C
    C   1.0     0.145875     0.166592     0.228639  Biso 1.000000     C
    C   1.0     0.173437     0.084330     0.375358  Biso 1.000000     C
    C   1.0     0.474809     0.848653     0.498423  Biso 1.000000     C
    C   1.0     0.625410     0.810288     0.428442  Biso 1.000000     C
    C   1.0     0.471937     0.886657     0.124840  Biso 1.000000     C
    C   1.0     0.454148     0.826160     0.190663  Biso 1.000000     C
    C   1.0     0.447298     0.744991     0.176493  Biso 1.000000     C
    C   1.0     0.472614     0.782386     0.039771  Biso 1.000000     C
    C   1.0     0.481018     0.864763     0.047846  Biso 1.000000     C
    C   1.0     0.495736     0.167638     0.203275  Biso 1.000000     C
    C   1.0     0.408719     0.241746     0.220589  Biso 1.000000     C
    C   1.0     0.413799     0.312358     0.255308  Biso 1.000000     C
    C   1.0     0.581764     0.239662     0.254525  Biso 1.000000     C
    C   1.0     0.584086     0.165842     0.219903  Biso 1.000000     C
    C   1.0     0.730787     0.207672     0.637178  Biso 1.000000     C
    C   1.0     0.782898     0.126567     0.700914  Biso 1.000000     C
    C   1.0     0.854459     0.128166     0.747891  Biso 1.000000     C
    C   1.0     0.870041     0.211107     0.731606  Biso 1.000000     C
    C   1.0     0.812600     0.290107     0.667532  Biso 1.000000     C
    C   1.0     0.117975     0.825089     0.926622  Biso 1.000000     C
    C   1.0     0.189767     0.759603     0.887203  Biso 1.000000     C
    C   1.0     0.134899     0.822931     0.008131  Biso 1.000000     C
    C   1.0     0.142923    -0.000534     0.724742  Biso 1.000000     C
    C   1.0     0.141808     0.054457     0.843662  Biso 1.000000     C
    C   1.0     0.148000     0.948256     0.595244  Biso 1.000000     C
    C   1.0     0.253946     0.019328     0.621724  Biso 1.000000     C
    C   1.0     0.154966     0.103130     0.970928  Biso 1.000000     C
    C   1.0     0.268000     0.104210     0.864739  Biso 1.000000     C
    C   1.0     0.225836     0.754104     0.047413  Biso 1.000000     C
    C   1.0     0.278656     0.693322     0.931731  Biso 1.000000     C
    C   1.0     0.686687     0.950993     0.709631  Biso 1.000000     C
    C   1.0     0.532289     0.063540     0.644428  Biso 1.000000     C
    C   1.0     0.853992     0.833481     0.771032  Biso 1.000000     C
    C   1.0     0.826672     0.915698     0.624310  Biso 1.000000     C
    C   1.0     0.525314     0.151555     0.500951  Biso 1.000000     C
    C   1.0     0.374664     0.189904     0.570905  Biso 1.000000     C
    C   1.0     0.527895     0.113471     0.874572  Biso 1.000000     C
    C   1.0     0.545810     0.173982     0.808858  Biso 1.000000     C
    C   1.0     0.552791     0.255019     0.823177  Biso 1.000000     C
    C   1.0     0.527391     0.217460     0.959858  Biso 1.000000     C
    C   1.0     0.518864     0.135191     0.951634  Biso 1.000000     C
    C   1.0     0.504086     0.832502     0.796054  Biso 1.000000     C
    C   1.0     0.591157     0.758402     0.778812  Biso 1.000000     C
    C   1.0     0.586171     0.687611     0.744287  Biso 1.000000     C
    C   1.0     0.418215     0.760099     0.745179  Biso 1.000000     C
    C   1.0     0.415798     0.834076     0.779620  Biso 1.000000     C
    C   1.0     0.269281     0.792213     0.362671  Biso 1.000000     C
    C   1.0     0.217148     0.873342     0.298961  Biso 1.000000     C
    C   1.0     0.145579     0.871755     0.251985  Biso 1.000000     C
    C   1.0     0.130009     0.788807     0.268242  Biso 1.000000     C
    C   1.0     0.187471     0.709785     0.332291  Biso 1.000000     C
    C   1.0     0.882049     0.174830     0.073267  Biso 1.000000     C
    C   1.0     0.810225     0.240321     0.112659  Biso 1.000000     C
    C   1.0     0.865172     0.176965     0.991755  Biso 1.000000     C
    C   1.0     0.857076     0.000000     0.275144  Biso 1.000000     C
    C   1.0     0.858202     0.945494     0.156226  Biso 1.000000     C
    C   1.0     0.852001     0.051691     0.404643  Biso 1.000000     C
    C   1.0     0.746016     0.980669     0.378132  Biso 1.000000     C
    C   1.0     0.845063     0.896810     0.028962  Biso 1.000000     C
    C   1.0     0.731992     0.895771     0.135129  Biso 1.000000     C
    C   1.0     0.774245     0.245772     0.952443  Biso 1.000000     C
    C   1.0     0.721349     0.306579     0.068103  Biso 1.000000     C
    N   1.0     0.519965     0.949973     0.290168  Biso 1.000000     N
    N   1.0     0.369586     0.983892     0.357283  Biso 1.000000     N
    N   1.0     0.342436     0.072253     0.214038  Biso 1.000000     N
    N   1.0     0.519849     0.868178     0.423678  Biso 1.000000     N
    N   1.0     0.214895     0.095952     0.297204  Biso 1.000000     N
    N   1.0     0.456225     0.722790     0.102803  Biso 1.000000     N
    N   1.0     0.498544     0.311261     0.272611  Biso 1.000000     N
    N   1.0     0.745307     0.288331     0.620100  Biso 1.000000     N
    N   1.0     0.070075     0.973463     0.741660  Biso 1.000000     N
    N   1.0     0.181156     0.034564     0.772739  Biso 1.000000     N
    N   1.0     0.061520     0.046836     0.873157  Biso 1.000000     N
    N   1.0     0.183189     0.985495     0.652128  Biso 1.000000     N
    N   1.0     0.185969     0.086228     0.890627  Biso 1.000000     N
    N   1.0     0.296838     0.690692     0.010278  Biso 1.000000     N
    N   1.0     0.479967     0.050251     0.709063  Biso 1.000000     N
    N   1.0     0.630471     0.016266     0.642146  Biso 1.000000     N
    N   1.0     0.657391     0.927931     0.785393  Biso 1.000000     N
    N   1.0     0.480233     0.132048     0.575659  Biso 1.000000     N
    N   1.0     0.785078     0.904102     0.702394  Biso 1.000000     N
    N   1.0     0.543871     0.277087     0.896920  Biso 1.000000     N
    N   1.0     0.501478     0.688539     0.727111  Biso 1.000000     N
    N   1.0     0.254775     0.711545     0.379722  Biso 1.000000     N
    N   1.0     0.929950     0.026456     0.258247  Biso 1.000000     N
    N   1.0     0.818837     0.965405     0.227138  Biso 1.000000     N
    N   1.0     0.938504     0.953096     0.126744  Biso 1.000000     N
    N   1.0     0.816790     0.014485     0.347746  Biso 1.000000     N
    N   1.0     0.814039     0.913730     0.109255  Biso 1.000000     N
    N   1.0     0.703210     0.309185     0.989554  Biso 1.000000     N
    O   1.0     0.484112     0.967659     0.129732  Biso 1.000000     O
    O   1.0     0.497114     0.097009     0.164442  Biso 1.000000     O
    O   1.0     0.904456     0.046496     0.811876  Biso 1.000000     O
    O   1.0     0.026882     0.893449     0.885300  Biso 1.000000     O
    O   1.0     0.515489     0.032672     0.869440  Biso 1.000000     O
    O   1.0     0.502524     0.903356     0.834647  Biso 1.000000     O
    O   1.0     0.095563     0.953445     0.188023  Biso 1.000000     O
    O   1.0     0.973131     0.106491     0.114620  Biso 1.000000     O
    P   1.0     0.456991     0.019981     0.207190  Biso 1.000000     P
    P   1.0     0.022528     0.992597     0.825314  Biso 1.000000     P
    P   1.0     0.542813     0.980261     0.792071  Biso 1.000000     P
    P   1.0     0.977493     0.007333     0.174591  Biso 1.000000     P
   Cl   1.0     0.652590     0.314310     0.424079  Biso 1.000000    Cl
   Cl   1.0     0.510985     0.576019     0.393250  Biso 1.000000    Cl
   Cl   1.0     0.606317     0.471437     0.199212  Biso 1.000000    Cl
   Cl   1.0     0.346889     0.575103     0.215478  Biso 1.000000    Cl
   Cl   1.0     0.356318     0.443053     0.423620  Biso 1.000000    Cl
   Cl   1.0     0.548197     0.580915     0.951403  Biso 1.000000    Cl
   Cl   1.0     0.347504     0.685557     0.575702  Biso 1.000000    Cl
   Cl   1.0     0.489104     0.423824     0.606529  Biso 1.000000    Cl
   Cl   1.0     0.393754     0.528406     0.800594  Biso 1.000000    Cl
   Cl   1.0     0.653214     0.424770     0.784337  Biso 1.000000    Cl
   Cl   1.0     0.643753     0.556836     0.576142  Biso 1.000000    Cl
   Cl   1.0     0.451854     0.418965     0.048374  Biso 1.000000    Cl
   Cd   1.0     0.498606     0.445985     0.314008  Biso 1.000000    Cd
   Cd   1.0     0.633509     0.425329     0.519813  Biso 1.000000    Cd
   Cd   1.0     0.454048     0.573256     0.085330  Biso 1.000000    Cd
   Cd   1.0     0.501487     0.553800     0.685784  Biso 1.000000    Cd
   Cd   1.0     0.366591     0.574540     0.479972  Biso 1.000000    Cd
   Cd   1.0     0.546029     0.426605     0.914473  Biso 1.000000    Cd
