#======================================================================

# CRYSTAL DATA

#----------------------------------------------------------------------

data_VESTA_phase_1


_pd_phase_name                         MOF
_cell_length_a                         18.42000
_cell_length_b                         18.43000
_cell_length_c                         18.42600
_cell_angle_alpha                      60.17700
_cell_angle_beta                       60.21300
_cell_angle_gamma                      60.20200
_symmetry_space_group_name_H-M         "P 1"
_symmetry_Int_Tables_number            1

loop_
_symmetry_equiv_pos_as_xyz
   "x, y, z"

loop_
   _atom_site_label
   _atom_site_occupancy
   _atom_site_fract_x
   _atom_site_fract_y
   _atom_site_fract_z
   _atom_site_adp_type
   _atom_site_B_iso_or_equiv
   _atom_site_type_symbol
    H   1.0     0.549779     0.068128     0.335723  Biso 1.000000     H
    H   1.0     0.546809     0.835721     0.568163  Biso 1.000000     H
    H   1.0     0.547987     0.067535     0.049480  Biso 1.000000     H
    H   1.0     0.548127     0.835763     0.046809  Biso 1.000000     H
    H   1.0     0.068170     0.835727     0.048230  Biso 1.000000     H
    H   1.0     0.931885     0.450238     0.664270  Biso 1.000000     H
    H   1.0     0.164302     0.452990     0.431959  Biso 1.000000     H
    H   1.0     0.932179     0.452066     0.950725  Biso 1.000000     H
    H   1.0     0.164290     0.451843     0.953085  Biso 1.000000     H
    H   1.0     0.164308     0.931969     0.951603  Biso 1.000000     H
    H   1.0     0.450206     0.931862     0.664277  Biso 1.000000     H
    H   1.0     0.453176     0.164269     0.431838  Biso 1.000000     H
    H   1.0     0.451998     0.932455     0.950522  Biso 1.000000     H
    H   1.0     0.451857     0.164227     0.953192  Biso 1.000000     H
    H   1.0     0.931815     0.164263     0.951771  Biso 1.000000     H
    H   1.0     0.068100     0.549753     0.335731  Biso 1.000000     H
    H   1.0     0.835683     0.547001     0.568042  Biso 1.000000     H
    H   1.0     0.067806     0.547922     0.049277  Biso 1.000000     H
    H   1.0     0.835695     0.548145     0.046917  Biso 1.000000     H
    H   1.0     0.835676     0.068021     0.048399  Biso 1.000000     H
    H   1.0     0.547443     0.547447     0.335746  Biso 1.000000     H
    H   1.0     0.548652     0.548805     0.567547  Biso 1.000000     H
    H   1.0     0.452542     0.452542     0.664255  Biso 1.000000     H
    H   1.0     0.451333     0.451184     0.432454  Biso 1.000000     H
    C   1.0     0.611303     0.889067     0.389123  Biso 1.000000     C
    C   1.0     0.553859     0.946375     0.446405  Biso 1.000000     C
    C   1.0     0.527579     0.039039     0.407690  Biso 1.000000     C
    C   1.0     0.525904     0.907686     0.539065  Biso 1.000000     C
    C   1.0     0.610909     0.888575     0.111040  Biso 1.000000     C
    C   1.0     0.553596     0.946088     0.053675  Biso 1.000000     C
    C   1.0     0.526578     0.038720     0.027416  Biso 1.000000     C
    C   1.0     0.526660     0.907708     0.025916  Biso 1.000000     C
    C   1.0     0.039074     0.907690     0.026701  Biso 1.000000     C
    C   1.0     0.110959     0.388555     0.610990  Biso 1.000000     C
    C   1.0     0.053632     0.446090     0.553651  Biso 1.000000     C
    C   1.0     0.960947     0.472424     0.592305  Biso 1.000000     C
    C   1.0     0.092325     0.473962     0.461000  Biso 1.000000     C
    C   1.0     0.111209     0.389165     0.889049  Biso 1.000000     C
    C   1.0     0.053793     0.446420     0.946379  Biso 1.000000     C
    C   1.0     0.961118     0.473455     0.972683  Biso 1.000000     C
    C   1.0     0.092322     0.473334     0.974008  Biso 1.000000     C
    C   1.0     0.092329     0.961000     0.973200  Biso 1.000000     C
    C   1.0     0.388681     0.110923     0.610878  Biso 1.000000     C
    C   1.0     0.446126     0.053615     0.553596  Biso 1.000000     C
    C   1.0     0.472406     0.960951     0.592311  Biso 1.000000     C
    C   1.0     0.474080     0.092304     0.460936  Biso 1.000000     C
    C   1.0     0.389067     0.111415     0.888970  Biso 1.000000     C
    C   1.0     0.446403     0.053902     0.946312  Biso 1.000000     C
    C   1.0     0.473405     0.961269     0.972587  Biso 1.000000     C
    C   1.0     0.473323     0.092281     0.974087  Biso 1.000000     C
    C   1.0     0.960910     0.092300     0.973302  Biso 1.000000     C
    C   1.0     0.889026     0.611425     0.389011  Biso 1.000000     C
    C   1.0     0.946353     0.553915     0.446350  Biso 1.000000     C
    C   1.0     0.039038     0.527565     0.407696  Biso 1.000000     C
    C   1.0     0.907660     0.526027     0.539001  Biso 1.000000     C
    C   1.0     0.888776     0.610818     0.110959  Biso 1.000000     C
    C   1.0     0.946192     0.553579     0.053613  Biso 1.000000     C
    C   1.0     0.038866     0.526532     0.027321  Biso 1.000000     C
    C   1.0     0.907663     0.526654     0.025995  Biso 1.000000     C
    C   1.0     0.907656     0.038989     0.026803  Biso 1.000000     C
    C   1.0     0.610901     0.610987     0.388583  Biso 1.000000     C
    C   1.0     0.553588     0.553655     0.446088  Biso 1.000000     C
    C   1.0     0.526274     0.526278     0.407701  Biso 1.000000     C
    C   1.0     0.526945     0.527041     0.538728  Biso 1.000000     C
    C   1.0     0.889092     0.888992     0.111282  Biso 1.000000     C
    C   1.0     0.946386     0.946334     0.053842  Biso 1.000000     C
    C   1.0     0.389084     0.389001     0.611419  Biso 1.000000     C
    C   1.0     0.446395     0.446337     0.553913  Biso 1.000000     C
    C   1.0     0.473711     0.473711     0.592301  Biso 1.000000     C
    C   1.0     0.473040     0.472948     0.461273  Biso 1.000000     C
    C   1.0     0.110892     0.110997     0.888731  Biso 1.000000     C
    C   1.0     0.053599     0.053655     0.946142  Biso 1.000000     C
    O   1.0     0.633135     0.805304     0.428701  Biso 1.000000     O
    O   1.0     0.633798     0.928626     0.305356  Biso 1.000000     O
    O   1.0     0.633104     0.804835     0.132570  Biso 1.000000     O
    O   1.0     0.632905     0.928037     0.133715  Biso 1.000000     O
    O   1.0     0.928679     0.805243     0.133153  Biso 1.000000     O
    O   1.0     0.194728     0.366404     0.571449  Biso 1.000000     O
    O   1.0     0.071382     0.366417     0.694745  Biso 1.000000     O
    O   1.0     0.194983     0.367269     0.867176  Biso 1.000000     O
    O   1.0     0.071675     0.366894     0.866714  Biso 1.000000     O
    O   1.0     0.194663     0.071463     0.866351  Biso 1.000000     O
    O   1.0     0.366851     0.194685     0.571300  Biso 1.000000     O
    O   1.0     0.366185     0.071365     0.694646  Biso 1.000000     O
    O   1.0     0.366876     0.195155     0.867436  Biso 1.000000     O
    O   1.0     0.367076     0.071952     0.866291  Biso 1.000000     O
    O   1.0     0.071305     0.194746     0.866854  Biso 1.000000     O
    O   1.0     0.805256     0.633580     0.428552  Biso 1.000000     O
    O   1.0     0.928603     0.633566     0.305257  Biso 1.000000     O
    O   1.0     0.805002     0.632718     0.132828  Biso 1.000000     O
    O   1.0     0.928310     0.633092     0.133291  Biso 1.000000     O
    O   1.0     0.805322     0.928526     0.133657  Biso 1.000000     O
    O   1.0     0.749923     0.749864     0.249874  Biso 1.000000     O
    O   1.0     0.633004     0.633535     0.428065  Biso 1.000000     O
    O   1.0     0.632975     0.632648     0.304826  Biso 1.000000     O
    O   1.0     0.250062     0.250126     0.750126  Biso 1.000000     O
    O   1.0     0.366981     0.366454     0.571936  Biso 1.000000     O
    O   1.0     0.367010     0.367340     0.695176  Biso 1.000000     O
   Zn   1.0     0.880361     0.706655     0.206585  Biso 1.000000    Zn
   Zn   1.0     0.293297     0.119720     0.793166  Biso 1.000000    Zn
   Zn   1.0     0.119623     0.293333     0.793418  Biso 1.000000    Zn
   Zn   1.0     0.706686     0.880270     0.206837  Biso 1.000000    Zn
   Zn   1.0     0.706586     0.706820     0.380297  Biso 1.000000    Zn
   Zn   1.0     0.706332     0.706091     0.206151  Biso 1.000000    Zn
   Zn   1.0     0.293399     0.293168     0.619704  Biso 1.000000    Zn
   Zn   1.0     0.293652     0.293898     0.793852  Biso 1.000000    Zn
