#======================================================================

# CRYSTAL DATA

#----------------------------------------------------------------------

data_VESTA_phase_1


_pd_phase_name                         MOF
_cell_length_a                         20.24700
_cell_length_b                         20.23800
_cell_length_c                         21.91400
_cell_angle_alpha                      78.99400
_cell_angle_beta                       79.11400
_cell_angle_gamma                      79.55800
_symmetry_space_group_name_H-M         "P 1"
_symmetry_Int_Tables_number            1

loop_
_symmetry_equiv_pos_as_xyz
   "x, y, z"

loop_
   _atom_site_label
   _atom_site_occupancy
   _atom_site_fract_x
   _atom_site_fract_y
   _atom_site_fract_z
   _atom_site_adp_type
   _atom_site_B_iso_or_equiv
   _atom_site_type_symbol
    H   1.0     0.315453     0.320073     0.167484  Biso 1.000000     H
    H   1.0     0.315419     0.320050     0.668456  Biso 1.000000     H
    H   1.0     0.315454     0.820092     0.167484  Biso 1.000000     H
    H   1.0     0.315425     0.820060     0.668457  Biso 1.000000     H
    H   1.0     0.815441     0.320079     0.167502  Biso 1.000000     H
    H   1.0     0.815411     0.320059     0.668477  Biso 1.000000     H
    H   1.0     0.815446     0.820093     0.167475  Biso 1.000000     H
    H   1.0     0.815411     0.820059     0.668444  Biso 1.000000     H
    H   1.0     0.297998     0.325986     0.250084  Biso 1.000000     H
    H   1.0     0.297955     0.326061     0.751039  Biso 1.000000     H
    H   1.0     0.298002     0.826003     0.250084  Biso 1.000000     H
    H   1.0     0.297960     0.826070     0.751040  Biso 1.000000     H
    H   1.0     0.797995     0.325978     0.250105  Biso 1.000000     H
    H   1.0     0.797943     0.326064     0.751060  Biso 1.000000     H
    H   1.0     0.797988     0.826010     0.250073  Biso 1.000000     H
    H   1.0     0.797956     0.826070     0.751027  Biso 1.000000     H
    H   1.0     0.205458     0.279462     0.174870  Biso 1.000000     H
    H   1.0     0.205417     0.279400     0.675907  Biso 1.000000     H
    H   1.0     0.205459     0.779486     0.174866  Biso 1.000000     H
    H   1.0     0.205422     0.779413     0.675905  Biso 1.000000     H
    H   1.0     0.705441     0.279478     0.174888  Biso 1.000000     H
    H   1.0     0.705413     0.279412     0.675915  Biso 1.000000     H
    H   1.0     0.705459     0.779477     0.174854  Biso 1.000000     H
    H   1.0     0.705407     0.779415     0.675901  Biso 1.000000     H
    H   1.0     0.189975     0.357787     0.205910  Biso 1.000000     H
    H   1.0     0.189941     0.357765     0.706867  Biso 1.000000     H
    H   1.0     0.189977     0.857808     0.205913  Biso 1.000000     H
    H   1.0     0.189947     0.857777     0.706866  Biso 1.000000     H
    H   1.0     0.689967     0.357794     0.205943  Biso 1.000000     H
    H   1.0     0.689931     0.357775     0.706882  Biso 1.000000     H
    H   1.0     0.689966     0.857805     0.205893  Biso 1.000000     H
    H   1.0     0.689936     0.857780     0.706863  Biso 1.000000     H
    H   1.0     0.180137     0.184922     0.082562  Biso 1.000000     H
    H   1.0     0.180194     0.184402     0.582138  Biso 1.000000     H
    H   1.0     0.180136     0.684929     0.082563  Biso 1.000000     H
    H   1.0     0.180191     0.684406     0.582138  Biso 1.000000     H
    H   1.0     0.680155     0.184915     0.082603  Biso 1.000000     H
    H   1.0     0.680172     0.184403     0.582147  Biso 1.000000     H
    H   1.0     0.680115     0.684930     0.082535  Biso 1.000000     H
    H   1.0     0.680175     0.684408     0.582137  Biso 1.000000     H
    H   1.0     0.174329     0.201365    -0.000088  Biso 1.000000     H
    H   1.0     0.173960     0.201979     0.499553  Biso 1.000000     H
    H   1.0     0.174329     0.701371    -0.000088  Biso 1.000000     H
    H   1.0     0.173957     0.701990     0.499551  Biso 1.000000     H
    H   1.0     0.674330     0.201367    -0.000044  Biso 1.000000     H
    H   1.0     0.673938     0.201980     0.499562  Biso 1.000000     H
    H   1.0     0.674315     0.701373    -0.000118  Biso 1.000000     H
    H   1.0     0.673943     0.701990     0.499549  Biso 1.000000     H
    H   1.0     0.220283     0.295467     0.073887  Biso 1.000000     H
    H   1.0     0.220791     0.294490     0.574561  Biso 1.000000     H
    H   1.0     0.220282     0.795475     0.073884  Biso 1.000000     H
    H   1.0     0.220793     0.794497     0.574559  Biso 1.000000     H
    H   1.0     0.720315     0.295454     0.073924  Biso 1.000000     H
    H   1.0     0.720771     0.294490     0.574570  Biso 1.000000     H
    H   1.0     0.720257     0.795476     0.073863  Biso 1.000000     H
    H   1.0     0.720775     0.794500     0.574559  Biso 1.000000     H
    H   1.0     0.142072     0.310111     0.042708  Biso 1.000000     H
    H   1.0     0.142392     0.310020     0.543567  Biso 1.000000     H
    H   1.0     0.142072     0.810117     0.042707  Biso 1.000000     H
    H   1.0     0.142396     0.810025     0.543566  Biso 1.000000     H
    H   1.0     0.642092     0.310108     0.042765  Biso 1.000000     H
    H   1.0     0.642373     0.310020     0.543575  Biso 1.000000     H
    H   1.0     0.642051     0.810118     0.042678  Biso 1.000000     H
    H   1.0     0.642380     0.810026     0.543562  Biso 1.000000     H
    H   1.0     0.184564     0.179939     0.331559  Biso 1.000000     H
    H   1.0     0.184529     0.179914     0.832527  Biso 1.000000     H
    H   1.0     0.184566     0.679956     0.331556  Biso 1.000000     H
    H   1.0     0.184530     0.679929     0.832529  Biso 1.000000     H
    H   1.0     0.684561     0.179937     0.331577  Biso 1.000000     H
    H   1.0     0.684513     0.179925     0.832542  Biso 1.000000     H
    H   1.0     0.684555     0.679956     0.331546  Biso 1.000000     H
    H   1.0     0.684523     0.679927     0.832522  Biso 1.000000     H
    H   1.0     0.202019     0.173927     0.248977  Biso 1.000000     H
    H   1.0     0.201986     0.173996     0.749928  Biso 1.000000     H
    H   1.0     0.202023     0.673944     0.248974  Biso 1.000000     H
    H   1.0     0.201989     0.674006     0.749931  Biso 1.000000     H
    H   1.0     0.702006     0.173926     0.248995  Biso 1.000000     H
    H   1.0     0.701980     0.173998     0.749944  Biso 1.000000     H
    H   1.0     0.702022     0.673944     0.248962  Biso 1.000000     H
    H   1.0     0.701975     0.674010     0.749922  Biso 1.000000     H
    H   1.0     0.294570     0.220579     0.324101  Biso 1.000000     H
    H   1.0     0.294521     0.220525     0.825145  Biso 1.000000     H
    H   1.0     0.294573     0.720599     0.324098  Biso 1.000000     H
    H   1.0     0.294522     0.720542     0.825145  Biso 1.000000     H
    H   1.0     0.794571     0.220573     0.324110  Biso 1.000000     H
    H   1.0     0.794503     0.220545     0.825161  Biso 1.000000     H
    H   1.0     0.794560     0.720606     0.324093  Biso 1.000000     H
    H   1.0     0.794521     0.720532     0.825133  Biso 1.000000     H
    H   1.0     0.310038     0.142217     0.293138  Biso 1.000000     H
    H   1.0     0.310007     0.142201     0.794103  Biso 1.000000     H
    H   1.0     0.310041     0.642236     0.293136  Biso 1.000000     H
    H   1.0     0.310009     0.642213     0.794109  Biso 1.000000     H
    H   1.0     0.810031     0.142212     0.293143  Biso 1.000000     H
    H   1.0     0.809994     0.142214     0.794131  Biso 1.000000     H
    H   1.0     0.810033     0.642243     0.293133  Biso 1.000000     H
    H   1.0     0.809999     0.642209     0.794090  Biso 1.000000     H
    H   1.0     0.319792     0.315607     0.417871  Biso 1.000000     H
    H   1.0     0.319857     0.315081     0.917459  Biso 1.000000     H
    H   1.0     0.319792     0.815608     0.417869  Biso 1.000000     H
    H   1.0     0.319855     0.815085     0.917457  Biso 1.000000     H
    H   1.0     0.819774     0.315606     0.417880  Biso 1.000000     H
    H   1.0     0.819871     0.315082     0.917503  Biso 1.000000     H
    H   1.0     0.819778     0.815609     0.417869  Biso 1.000000     H
    H   1.0     0.819832     0.815088     0.917429  Biso 1.000000     H
    H   1.0     0.326020     0.298028     0.500458  Biso 1.000000     H
    H   1.0     0.325658     0.298636     0.000000  Biso 1.000000     H
    H   1.0     0.326021     0.798033     0.500454  Biso 1.000000     H
    H   1.0     0.325657     0.798644     0.000000  Biso 1.000000     H
    H   1.0     0.826000     0.298025     0.500468  Biso 1.000000     H
    H   1.0     0.825664     0.298628     0.000000  Biso 1.000000     H
    H   1.0     0.826007     0.798032     0.500454  Biso 1.000000     H
    H   1.0     0.825642     0.798647     0.000000  Biso 1.000000     H
    H   1.0     0.279196     0.205518     0.425443  Biso 1.000000     H
    H   1.0     0.279713     0.204535     0.926130  Biso 1.000000     H
    H   1.0     0.279192     0.705525     0.425441  Biso 1.000000     H
    H   1.0     0.279713     0.704540     0.926130  Biso 1.000000     H
    H   1.0     0.779175     0.205518     0.425452  Biso 1.000000     H
    H   1.0     0.779730     0.204538     0.926158  Biso 1.000000     H
    H   1.0     0.779176     0.705526     0.425441  Biso 1.000000     H
    H   1.0     0.779686     0.704543     0.926108  Biso 1.000000     H
    H   1.0     0.357592     0.189990     0.456442  Biso 1.000000     H
    H   1.0     0.357919     0.189892     0.957314  Biso 1.000000     H
    H   1.0     0.357591     0.689990     0.456439  Biso 1.000000     H
    H   1.0     0.357920     0.689897     0.957314  Biso 1.000000     H
    H   1.0     0.857570     0.189987     0.456451  Biso 1.000000     H
    H   1.0     0.857931     0.189890     0.957351  Biso 1.000000     H
    H   1.0     0.857575     0.689990     0.456438  Biso 1.000000     H
    H   1.0     0.857899     0.689900     0.957283  Biso 1.000000     H
    C   1.0     0.289241     0.299101     0.213748  Biso 1.000000     C
    C   1.0     0.289214     0.299117     0.714740  Biso 1.000000     C
    C   1.0     0.289243     0.799119     0.213747  Biso 1.000000     C
    C   1.0     0.289218     0.799127     0.714741  Biso 1.000000     C
    C   1.0     0.789232     0.299101     0.213765  Biso 1.000000     C
    C   1.0     0.789203     0.299123     0.714759  Biso 1.000000     C
    C   1.0     0.789233     0.799121     0.213738  Biso 1.000000     C
    C   1.0     0.789208     0.799126     0.714730  Biso 1.000000     C
    C   1.0     0.214100     0.304359     0.212590  Biso 1.000000     C
    C   1.0     0.214075     0.304343     0.713593  Biso 1.000000     C
    C   1.0     0.214102     0.804380     0.212589  Biso 1.000000     C
    C   1.0     0.214080     0.804355     0.713592  Biso 1.000000     C
    C   1.0     0.714089     0.304365     0.212613  Biso 1.000000     C
    C   1.0     0.714066     0.304353     0.713605  Biso 1.000000     C
    C   1.0     0.714094     0.804378     0.212575  Biso 1.000000     C
    C   1.0     0.714069     0.804357     0.713586  Biso 1.000000     C
    C   1.0     0.201075     0.210756     0.036098  Biso 1.000000     C
    C   1.0     0.200988     0.210689     0.535827  Biso 1.000000     C
    C   1.0     0.201074     0.710762     0.036098  Biso 1.000000     C
    C   1.0     0.200984     0.710695     0.535827  Biso 1.000000     C
    C   1.0     0.701086     0.210751     0.036137  Biso 1.000000     C
    C   1.0     0.700967     0.210689     0.535836  Biso 1.000000     C
    C   1.0     0.701056     0.710764     0.036071  Biso 1.000000     C
    C   1.0     0.700969     0.710696     0.535826  Biso 1.000000     C
    C   1.0     0.195521     0.286149     0.036336  Biso 1.000000     C
    C   1.0     0.195772     0.285877     0.536887  Biso 1.000000     C
    C   1.0     0.195521     0.786156     0.036334  Biso 1.000000     C
    C   1.0     0.195775     0.785882     0.536884  Biso 1.000000     C
    C   1.0     0.695539     0.286143     0.036380  Biso 1.000000     C
    C   1.0     0.695752     0.285877     0.536895  Biso 1.000000     C
    C   1.0     0.695500     0.786158     0.036309  Biso 1.000000     C
    C   1.0     0.695759     0.785884     0.536882  Biso 1.000000     C
    C   1.0     0.210766     0.200871     0.285273  Biso 1.000000     C
    C   1.0     0.210741     0.200884     0.786263  Biso 1.000000     C
    C   1.0     0.210768     0.700888     0.285271  Biso 1.000000     C
    C   1.0     0.210743     0.700898     0.786265  Biso 1.000000     C
    C   1.0     0.710758     0.200869     0.285289  Biso 1.000000     C
    C   1.0     0.710729     0.200891     0.786279  Biso 1.000000     C
    C   1.0     0.710761     0.700888     0.285261  Biso 1.000000     C
    C   1.0     0.710734     0.700897     0.786257  Biso 1.000000     C
    C   1.0     0.285906     0.195640     0.286415  Biso 1.000000     C
    C   1.0     0.285881     0.195629     0.787423  Biso 1.000000     C
    C   1.0     0.285908     0.695659     0.286412  Biso 1.000000     C
    C   1.0     0.285883     0.695641     0.787425  Biso 1.000000     C
    C   1.0     0.785900     0.195636     0.286425  Biso 1.000000     C
    C   1.0     0.785867     0.195641     0.787442  Biso 1.000000     C
    C   1.0     0.785899     0.695664     0.286407  Biso 1.000000     C
    C   1.0     0.785875     0.695638     0.787411  Biso 1.000000     C
    C   1.0     0.298996     0.289319     0.464180  Biso 1.000000     C
    C   1.0     0.298916     0.289246     0.963922  Biso 1.000000     C
    C   1.0     0.298994     0.789322     0.464179  Biso 1.000000     C
    C   1.0     0.298914     0.789252     0.963920  Biso 1.000000     C
    C   1.0     0.798977     0.289318     0.464189  Biso 1.000000     C
    C   1.0     0.798927     0.289243     0.963963  Biso 1.000000     C
    C   1.0     0.798980     0.789323     0.464178  Biso 1.000000     C
    C   1.0     0.798895     0.789255     0.963894  Biso 1.000000     C
    C   1.0     0.304211     0.214132     0.463120  Biso 1.000000     C
    C   1.0     0.304471     0.213853     0.963683  Biso 1.000000     C
    C   1.0     0.304211     0.714135     0.463117  Biso 1.000000     C
    C   1.0     0.304471     0.713858     0.963683  Biso 1.000000     C
    C   1.0     0.804191     0.214130     0.463129  Biso 1.000000     C
    C   1.0     0.804482     0.213851     0.963717  Biso 1.000000     C
    C   1.0     0.804196     0.714135     0.463117  Biso 1.000000     C
    C   1.0     0.804450     0.713861     0.963657  Biso 1.000000     C
    O   1.0     0.319506     0.227970     0.226620  Biso 1.000000     O
    O   1.0     0.319480     0.227999     0.727665  Biso 1.000000     O
    O   1.0     0.319507     0.727987     0.226616  Biso 1.000000     O
    O   1.0     0.319481     0.728008     0.727666  Biso 1.000000     O
    O   1.0     0.819493     0.227968     0.226627  Biso 1.000000     O
    O   1.0     0.819468     0.228004     0.727682  Biso 1.000000     O
    O   1.0     0.819502     0.727992     0.226613  Biso 1.000000     O
    O   1.0     0.819473     0.728008     0.727654  Biso 1.000000     O
    O   1.0     0.272217     0.180593     0.023704  Biso 1.000000     O
    O   1.0     0.272037     0.180428     0.522928  Biso 1.000000     O
    O   1.0     0.272216     0.680601     0.023704  Biso 1.000000     O
    O   1.0     0.272035     0.680437     0.522927  Biso 1.000000     O
    O   1.0     0.772224     0.180583     0.023732  Biso 1.000000     O
    O   1.0     0.772016     0.180427     0.522937  Biso 1.000000     O
    O   1.0     0.772199     0.680607     0.023682  Biso 1.000000     O
    O   1.0     0.772020     0.680438     0.522927  Biso 1.000000     O
    O   1.0     0.180502     0.271990     0.272348  Biso 1.000000     O
    O   1.0     0.180476     0.272015     0.773388  Biso 1.000000     O
    O   1.0     0.180504     0.772006     0.272346  Biso 1.000000     O
    O   1.0     0.180476     0.772028     0.773386  Biso 1.000000     O
    O   1.0     0.680492     0.271987     0.272367  Biso 1.000000     O
    O   1.0     0.680463     0.272021     0.773396  Biso 1.000000     O
    O   1.0     0.680496     0.772007     0.272333  Biso 1.000000     O
    O   1.0     0.680470     0.772029     0.773382  Biso 1.000000     O
    O   1.0     0.227945     0.319577     0.477076  Biso 1.000000     O
    O   1.0     0.227773     0.319405     0.976312  Biso 1.000000     O
    O   1.0     0.227946     0.819587     0.477075  Biso 1.000000     O
    O   1.0     0.227772     0.819413     0.976310  Biso 1.000000     O
    O   1.0     0.727926     0.319577     0.477084  Biso 1.000000     O
    O   1.0     0.727783     0.319399     0.976352  Biso 1.000000     O
    O   1.0     0.727932     0.819588     0.477074  Biso 1.000000     O
    O   1.0     0.727754     0.819419     0.976289  Biso 1.000000     O
   Cl   1.0     0.420697     0.235594     0.095346  Biso 1.000000    Cl
   Cl   1.0     0.420453     0.235610     0.596051  Biso 1.000000    Cl
   Cl   1.0     0.420681     0.735611     0.095331  Biso 1.000000    Cl
   Cl   1.0     0.420450     0.735611     0.596047  Biso 1.000000    Cl
   Cl   1.0     0.920677     0.235577     0.095353  Biso 1.000000    Cl
   Cl   1.0     0.920427     0.235599     0.596067  Biso 1.000000    Cl
   Cl   1.0     0.920683     0.735632     0.095328  Biso 1.000000    Cl
   Cl   1.0     0.920444     0.735615     0.596033  Biso 1.000000    Cl
   Cl   1.0     0.414273     0.060556     0.029615  Biso 1.000000    Cl
   Cl   1.0     0.414378     0.060745     0.529564  Biso 1.000000    Cl
   Cl   1.0     0.414272     0.560559     0.029614  Biso 1.000000    Cl
   Cl   1.0     0.414373     0.560743     0.529566  Biso 1.000000    Cl
   Cl   1.0     0.914269     0.060531     0.029638  Biso 1.000000    Cl
   Cl   1.0     0.914350     0.060735     0.529588  Biso 1.000000    Cl
   Cl   1.0     0.914270     0.560582     0.029598  Biso 1.000000    Cl
   Cl   1.0     0.914354     0.560742     0.529561  Biso 1.000000    Cl
   Cl   1.0     0.428737     0.265344     0.309627  Biso 1.000000    Cl
   Cl   1.0     0.428736     0.264980     0.810379  Biso 1.000000    Cl
   Cl   1.0     0.428751     0.765364     0.309609  Biso 1.000000    Cl
   Cl   1.0     0.428745     0.765001     0.810365  Biso 1.000000    Cl
   Cl   1.0     0.928733     0.265339     0.309631  Biso 1.000000    Cl
   Cl   1.0     0.928731     0.264976     0.810391  Biso 1.000000    Cl
   Cl   1.0     0.928734     0.765372     0.309613  Biso 1.000000    Cl
   Cl   1.0     0.928728     0.765011     0.810347  Biso 1.000000    Cl
   Cl   1.0     0.264361     0.078626     0.154796  Biso 1.000000    Cl
   Cl   1.0     0.264328     0.079059     0.654537  Biso 1.000000    Cl
   Cl   1.0     0.264362     0.578633     0.154797  Biso 1.000000    Cl
   Cl   1.0     0.264325     0.579065     0.654538  Biso 1.000000    Cl
   Cl   1.0     0.764352     0.078593     0.154815  Biso 1.000000    Cl
   Cl   1.0     0.764292     0.079060     0.654550  Biso 1.000000    Cl
   Cl   1.0     0.764365     0.578665     0.154787  Biso 1.000000    Cl
   Cl   1.0     0.764312     0.579073     0.654539  Biso 1.000000    Cl
   Cl   1.0     0.439014     0.085614     0.220956  Biso 1.000000    Cl
   Cl   1.0     0.438921     0.085407     0.721314  Biso 1.000000    Cl
   Cl   1.0     0.439024     0.585637     0.220943  Biso 1.000000    Cl
   Cl   1.0     0.438921     0.585414     0.721315  Biso 1.000000    Cl
   Cl   1.0     0.938999     0.085609     0.220974  Biso 1.000000    Cl
   Cl   1.0     0.938885     0.085402     0.721339  Biso 1.000000    Cl
   Cl   1.0     0.939030     0.585648     0.220932  Biso 1.000000    Cl
   Cl   1.0     0.938916     0.585417     0.721300  Biso 1.000000    Cl
   Cl   1.0     0.235133     0.071357     0.439877  Biso 1.000000    Cl
   Cl   1.0     0.234841     0.071643     0.940259  Biso 1.000000    Cl
   Cl   1.0     0.235137     0.571361     0.439870  Biso 1.000000    Cl
   Cl   1.0     0.234841     0.571650     0.940260  Biso 1.000000    Cl
   Cl   1.0     0.735108     0.071359     0.439887  Biso 1.000000    Cl
   Cl   1.0     0.734817     0.071660     0.940283  Biso 1.000000    Cl
   Cl   1.0     0.735114     0.571360     0.439876  Biso 1.000000    Cl
   Cl   1.0     0.734850     0.571630     0.940250  Biso 1.000000    Cl
   Cl   1.0     0.079544     0.264389     0.403977  Biso 1.000000    Cl
   Cl   1.0     0.079319     0.264392     0.904687  Biso 1.000000    Cl
   Cl   1.0     0.079542     0.764404     0.403971  Biso 1.000000    Cl
   Cl   1.0     0.079304     0.764402     0.904673  Biso 1.000000    Cl
   Cl   1.0     0.579522     0.264379     0.403993  Biso 1.000000    Cl
   Cl   1.0     0.579296     0.264374     0.904698  Biso 1.000000    Cl
   Cl   1.0     0.579536     0.764407     0.403956  Biso 1.000000    Cl
   Cl   1.0     0.579306     0.764416     0.904672  Biso 1.000000    Cl
   Cl   1.0     0.085612     0.439268     0.470447  Biso 1.000000    Cl
   Cl   1.0     0.085721     0.439445     0.970407  Biso 1.000000    Cl
   Cl   1.0     0.085618     0.939275     0.470451  Biso 1.000000    Cl
   Cl   1.0     0.085719     0.939448     0.970401  Biso 1.000000    Cl
   Cl   1.0     0.585589     0.439261     0.470464  Biso 1.000000    Cl
   Cl   1.0     0.585710     0.439415     0.970453  Biso 1.000000    Cl
   Cl   1.0     0.585600     0.939275     0.470439  Biso 1.000000    Cl
   Cl   1.0     0.585713     0.939466     0.970388  Biso 1.000000    Cl
   Cl   1.0     0.071247     0.234984     0.189668  Biso 1.000000    Cl
   Cl   1.0     0.071231     0.234643     0.690409  Biso 1.000000    Cl
   Cl   1.0     0.071251     0.735028     0.189649  Biso 1.000000    Cl
   Cl   1.0     0.071249     0.734649     0.690393  Biso 1.000000    Cl
   Cl   1.0     0.571244     0.234969     0.189686  Biso 1.000000    Cl
   Cl   1.0     0.571226     0.234655     0.690409  Biso 1.000000    Cl
   Cl   1.0     0.571236     0.735023     0.189637  Biso 1.000000    Cl
   Cl   1.0     0.571230     0.734658     0.690396  Biso 1.000000    Cl
   Cl   1.0     0.235660     0.420948     0.345472  Biso 1.000000    Cl
   Cl   1.0     0.235632     0.421373     0.845223  Biso 1.000000    Cl
   Cl   1.0     0.235668     0.920958     0.345474  Biso 1.000000    Cl
   Cl   1.0     0.235631     0.921377     0.845220  Biso 1.000000    Cl
   Cl   1.0     0.735635     0.420947     0.345484  Biso 1.000000    Cl
   Cl   1.0     0.735606     0.421344     0.845255  Biso 1.000000    Cl
   Cl   1.0     0.735658     0.920962     0.345472  Biso 1.000000    Cl
   Cl   1.0     0.735627     0.921405     0.845208  Biso 1.000000    Cl
   Cl   1.0     0.061063     0.414582     0.278707  Biso 1.000000    Cl
   Cl   1.0     0.060966     0.414367     0.779080  Biso 1.000000    Cl
   Cl   1.0     0.061073     0.914606     0.278708  Biso 1.000000    Cl
   Cl   1.0     0.060974     0.914381     0.779066  Biso 1.000000    Cl
   Cl   1.0     0.561042     0.414573     0.278726  Biso 1.000000    Cl
   Cl   1.0     0.560936     0.414368     0.779114  Biso 1.000000    Cl
   Cl   1.0     0.561068     0.914605     0.278689  Biso 1.000000    Cl
   Cl   1.0     0.560972     0.914386     0.779059  Biso 1.000000    Cl
   Cl   1.0     0.265152     0.428355     0.059760  Biso 1.000000    Cl
   Cl   1.0     0.264849     0.428652     0.560139  Biso 1.000000    Cl
   Cl   1.0     0.265152     0.928363     0.059755  Biso 1.000000    Cl
   Cl   1.0     0.264869     0.928654     0.560132  Biso 1.000000    Cl
   Cl   1.0     0.765131     0.428373     0.059793  Biso 1.000000    Cl
   Cl   1.0     0.764820     0.428655     0.560152  Biso 1.000000    Cl
   Cl   1.0     0.765163     0.928344     0.059739  Biso 1.000000    Cl
   Cl   1.0     0.764838     0.928655     0.560140  Biso 1.000000    Cl
   Cd   1.0     0.447237     0.211481     0.209895  Biso 1.000000    Cd
   Cd   1.0     0.447143     0.211252     0.710565  Biso 1.000000    Cd
   Cd   1.0     0.447238     0.711506     0.209874  Biso 1.000000    Cd
   Cd   1.0     0.447145     0.711259     0.710559  Biso 1.000000    Cd
   Cd   1.0     0.947224     0.211476     0.209899  Biso 1.000000    Cd
   Cd   1.0     0.947123     0.211245     0.710580  Biso 1.000000    Cd
   Cd   1.0     0.947229     0.711519     0.209875  Biso 1.000000    Cd
   Cd   1.0     0.947137     0.711262     0.710545  Biso 1.000000    Cd
   Cd   1.0     0.288502     0.052502     0.040282  Biso 1.000000    Cd
   Cd   1.0     0.288611     0.052647     0.540011  Biso 1.000000    Cd
   Cd   1.0     0.288500     0.552508     0.040285  Biso 1.000000    Cd
   Cd   1.0     0.288605     0.552651     0.540011  Biso 1.000000    Cd
   Cd   1.0     0.788496     0.052488     0.040296  Biso 1.000000    Cd
   Cd   1.0     0.788581     0.052647     0.540024  Biso 1.000000    Cd
   Cd   1.0     0.788499     0.552519     0.040279  Biso 1.000000    Cd
   Cd   1.0     0.788585     0.552652     0.540015  Biso 1.000000    Cd
   Cd   1.0     0.052843     0.288736     0.289468  Biso 1.000000    Cd
   Cd   1.0     0.052750     0.288499     0.790146  Biso 1.000000    Cd
   Cd   1.0     0.052845     0.788762     0.289459  Biso 1.000000    Cd
   Cd   1.0     0.052753     0.788514     0.790126  Biso 1.000000    Cd
   Cd   1.0     0.552829     0.288726     0.289483  Biso 1.000000    Cd
   Cd   1.0     0.552735     0.288500     0.790153  Biso 1.000000    Cd
   Cd   1.0     0.552837     0.788761     0.289444  Biso 1.000000    Cd
   Cd   1.0     0.552743     0.788520     0.790130  Biso 1.000000    Cd
   Cd   1.0     0.211381     0.447363     0.459998  Biso 1.000000    Cd
   Cd   1.0     0.211492     0.447499     0.959736  Biso 1.000000    Cd
   Cd   1.0     0.211387     0.947367     0.460001  Biso 1.000000    Cd
   Cd   1.0     0.211490     0.947504     0.959733  Biso 1.000000    Cd
   Cd   1.0     0.711357     0.447362     0.460010  Biso 1.000000    Cd
   Cd   1.0     0.711482     0.447484     0.959764  Biso 1.000000    Cd
   Cd   1.0     0.711368     0.947367     0.460001  Biso 1.000000    Cd
   Cd   1.0     0.711484     0.947516     0.959725  Biso 1.000000    Cd
   Cd   1.0     0.378490     0.121250     0.125152  Biso 1.000000    Cd
   Cd   1.0     0.378728     0.121015     0.625336  Biso 1.000000    Cd
   Cd   1.0     0.378488     0.621261     0.125147  Biso 1.000000    Cd
   Cd   1.0     0.378727     0.621015     0.625337  Biso 1.000000    Cd
   Cd   1.0     0.878473     0.121233     0.125170  Biso 1.000000    Cd
   Cd   1.0     0.878696     0.121008     0.625358  Biso 1.000000    Cd
   Cd   1.0     0.878497     0.621279     0.125133  Biso 1.000000    Cd
   Cd   1.0     0.878715     0.621022     0.625327  Biso 1.000000    Cd
   Cd   1.0     0.121264     0.378987     0.374682  Biso 1.000000    Cd
   Cd   1.0     0.121507     0.378744     0.874874  Biso 1.000000    Cd
   Cd   1.0     0.121269     0.878998     0.374684  Biso 1.000000    Cd
   Cd   1.0     0.121504     0.878749     0.874867  Biso 1.000000    Cd
   Cd   1.0     0.621242     0.378977     0.374701  Biso 1.000000    Cd
   Cd   1.0     0.621474     0.378731     0.874909  Biso 1.000000    Cd
   Cd   1.0     0.621259     0.879003     0.374668  Biso 1.000000    Cd
   Cd   1.0     0.621507     0.878762     0.874857  Biso 1.000000    Cd
