#======================================================================

# CRYSTAL DATA

#----------------------------------------------------------------------

data_VESTA_phase_1


_pd_phase_name                         MOF
_cell_length_a                         22.56700
_cell_length_b                         16.49200
_cell_length_c                         16.49500
_cell_angle_alpha                      90.01000
_cell_angle_beta                       90.01100
_cell_angle_gamma                      90.00900
_symmetry_space_group_name_H-M         "P 1"
_symmetry_Int_Tables_number            1

loop_
_symmetry_equiv_pos_as_xyz
   "x, y, z"

loop_
   _atom_site_label
   _atom_site_occupancy
   _atom_site_fract_x
   _atom_site_fract_y
   _atom_site_fract_z
   _atom_site_adp_type
   _atom_site_B_iso_or_equiv
   _atom_site_type_symbol
    H   1.0     0.331339     0.874458     0.245313  Biso 1.000000     H
    H   1.0     0.831330     0.874469     0.245300  Biso 1.000000     H
    H   1.0     0.189532     0.743483     0.359448  Biso 1.000000     H
    H   1.0     0.689526     0.743491     0.359437  Biso 1.000000     H
    H   1.0     0.258852     0.959189     0.472049  Biso 1.000000     H
    H   1.0     0.758840     0.959202     0.472034  Biso 1.000000     H
    H   1.0     0.081230     0.125357     0.754949  Biso 1.000000     H
    H   1.0     0.581225     0.125351     0.754954  Biso 1.000000     H
    H   1.0     0.439547     0.256414     0.640623  Biso 1.000000     H
    H   1.0     0.939553     0.256419     0.640621  Biso 1.000000     H
    H   1.0     0.008928     0.040817     0.527983  Biso 1.000000     H
    H   1.0     0.508922     0.040810     0.527988  Biso 1.000000     H
    H   1.0     0.206271     0.254956     0.374580  Biso 1.000000     H
    H   1.0     0.706271     0.254960     0.374580  Biso 1.000000     H
    H   1.0     0.064547     0.140630     0.243511  Biso 1.000000     H
    H   1.0     0.564550     0.140629     0.243508  Biso 1.000000     H
    H   1.0     0.133873     0.028066     0.459147  Biso 1.000000     H
    H   1.0     0.633874     0.028070     0.459147  Biso 1.000000     H
    H   1.0     0.456192     0.745011     0.625356  Biso 1.000000     H
    H   1.0     0.956198     0.745017     0.625360  Biso 1.000000     H
    H   1.0     0.314530     0.859393     0.756389  Biso 1.000000     H
    H   1.0     0.814531     0.859393     0.756387  Biso 1.000000     H
    H   1.0     0.383884     0.971935     0.540775  Biso 1.000000     H
    H   1.0     0.883887     0.971939     0.540777  Biso 1.000000     H
    H   1.0     0.043749     0.625370     0.745009  Biso 1.000000     H
    H   1.0     0.543749     0.625373     0.745011  Biso 1.000000     H
    H   1.0     0.185448     0.756519     0.859311  Biso 1.000000     H
    H   1.0     0.685448     0.756520     0.859312  Biso 1.000000     H
    H   1.0     0.116111     0.540885     0.971917  Biso 1.000000     H
    H   1.0     0.616109     0.540890     0.971921  Biso 1.000000     H
    H   1.0     0.293723     0.374538     0.254831  Biso 1.000000     H
    H   1.0     0.793721     0.374534     0.254828  Biso 1.000000     H
    H   1.0     0.435456     0.243517     0.140592  Biso 1.000000     H
    H   1.0     0.935458     0.243517     0.140594  Biso 1.000000     H
    H   1.0     0.366136     0.459173     0.028030  Biso 1.000000     H
    H   1.0     0.866135     0.459169     0.028027  Biso 1.000000     H
    H   1.0     0.168792     0.244976     0.874632  Biso 1.000000     H
    H   1.0     0.668795     0.244974     0.874632  Biso 1.000000     H
    H   1.0     0.310454     0.359387     0.743621  Biso 1.000000     H
    H   1.0     0.810452     0.359389     0.743615  Biso 1.000000     H
    H   1.0     0.241072     0.471975     0.959214  Biso 1.000000     H
    H   1.0     0.741072     0.471974     0.959212  Biso 1.000000     H
    H   1.0     0.418684     0.754765     0.125520  Biso 1.000000     H
    H   1.0     0.918685     0.754764     0.125520  Biso 1.000000     H
    H   1.0     0.060464     0.640554     0.256482  Biso 1.000000     H
    H   1.0     0.560466     0.640555     0.256481  Biso 1.000000     H
    H   1.0     0.491142     0.527973     0.040795  Biso 1.000000     H
    H   1.0     0.991145     0.527973     0.040794  Biso 1.000000     H
   Li   1.0     0.064016     0.825746     0.400451  Biso 1.000000    Li
   Li   1.0     0.564016     0.825748     0.400451  Biso 1.000000    Li
   Li   1.0     0.314063     0.174295     0.599553  Biso 1.000000    Li
   Li   1.0     0.814064     0.174295     0.599552  Biso 1.000000    Li
   Li   1.0     0.439023     0.099546     0.325698  Biso 1.000000    Li
   Li   1.0     0.939025     0.099546     0.325699  Biso 1.000000    Li
   Li   1.0     0.189050     0.900445     0.674302  Biso 1.000000    Li
   Li   1.0     0.689051     0.900446     0.674298  Biso 1.000000    Li
   Li   1.0     0.310978     0.674345     0.900445  Biso 1.000000    Li
   Li   1.0     0.810980     0.674343     0.900444  Biso 1.000000    Li
   Li   1.0     0.060961     0.325647     0.099557  Biso 1.000000    Li
   Li   1.0     0.560963     0.325649     0.099555  Biso 1.000000    Li
   Li   1.0     0.435918     0.400412     0.825715  Biso 1.000000    Li
   Li   1.0     0.935920     0.400412     0.825713  Biso 1.000000    Li
   Li   1.0     0.185978     0.599549     0.174206  Biso 1.000000    Li
   Li   1.0     0.685977     0.599549     0.174206  Biso 1.000000    Li
    C   1.0     0.335332     0.000000     0.356095  Biso 1.000000     C
    C   1.0     0.835326     0.000000     0.356079  Biso 1.000000     C
    C   1.0     0.259354     0.742710     0.228093  Biso 1.000000     C
    C   1.0     0.759347     0.742715     0.228086  Biso 1.000000     C
    C   1.0     0.179418     0.843012     0.494710  Biso 1.000000     C
    C   1.0     0.679412     0.843027     0.494700  Biso 1.000000     C
    C   1.0     0.298949     0.925345     0.358317  Biso 1.000000     C
    C   1.0     0.798949     0.925347     0.358311  Biso 1.000000     C
    C   1.0     0.300617     0.868020     0.295793  Biso 1.000000     C
    C   1.0     0.800615     0.868022     0.295787  Biso 1.000000     C
    C   1.0     0.260859     0.802723     0.296367  Biso 1.000000     C
    C   1.0     0.760861     0.802721     0.296367  Biso 1.000000     C
    C   1.0     0.220499     0.794106     0.360311  Biso 1.000000     C
    C   1.0     0.720499     0.794106     0.360308  Biso 1.000000     C
    C   1.0     0.220745     0.849450     0.424580  Biso 1.000000     C
    C   1.0     0.720745     0.849452     0.424576  Biso 1.000000     C
    C   1.0     0.259717     0.915124     0.423027  Biso 1.000000     C
    C   1.0     0.759714     0.915129     0.423019  Biso 1.000000     C
    C   1.0     0.085334    -0.000807     0.643965  Biso 1.000000     C
    C   1.0     0.585331    -0.000810     0.643974  Biso 1.000000     C
    C   1.0     0.009268     0.257188     0.772026  Biso 1.000000     C
    C   1.0     0.509264     0.257185     0.772028  Biso 1.000000     C
    C   1.0     0.429458     0.156955     0.505301  Biso 1.000000     C
    C   1.0     0.929463     0.156964     0.505299  Biso 1.000000     C
    C   1.0     0.048928     0.074575     0.641822  Biso 1.000000     C
    C   1.0     0.548929     0.074576     0.641821  Biso 1.000000     C
    C   1.0     0.050546     0.131836     0.704413  Biso 1.000000     C
    C   1.0     0.550547     0.131836     0.704412  Biso 1.000000     C
    C   1.0     0.010801     0.197134     0.703793  Biso 1.000000     C
    C   1.0     0.510804     0.197137     0.703789  Biso 1.000000     C
    C   1.0     0.470494     0.205785     0.639779  Biso 1.000000     C
    C   1.0     0.970495     0.205783     0.639781  Biso 1.000000     C
    C   1.0     0.470764     0.150487     0.575474  Biso 1.000000     C
    C   1.0     0.970764     0.150487     0.575476  Biso 1.000000     C
    C   1.0     0.009745     0.084844     0.577042  Biso 1.000000     C
    C   1.0     0.509745     0.084843     0.577042  Biso 1.000000     C
    C   1.0     0.210332     0.144037     0.500773  Biso 1.000000     C
    C   1.0     0.710334     0.144035     0.500772  Biso 1.000000     C
    C   1.0     0.134332     0.272010     0.242767  Biso 1.000000     C
    C   1.0     0.634332     0.272012     0.242766  Biso 1.000000     C
    C   1.0     0.054420     0.005339     0.343017  Biso 1.000000     C
    C   1.0     0.554423     0.005339     0.343012  Biso 1.000000     C
    C   1.0     0.173932     0.141864     0.425381  Biso 1.000000     C
    C   1.0     0.673928     0.141872     0.425385  Biso 1.000000     C
    C   1.0     0.175580     0.204417     0.368104  Biso 1.000000     C
    C   1.0     0.675576     0.204424     0.368108  Biso 1.000000     C
    C   1.0     0.135839     0.203779     0.302796  Biso 1.000000     C
    C   1.0     0.635834     0.203786     0.302800  Biso 1.000000     C
    C   1.0     0.095497     0.139788     0.294144  Biso 1.000000     C
    C   1.0     0.595495     0.139792     0.294147  Biso 1.000000     C
    C   1.0     0.095739     0.075515     0.349460  Biso 1.000000     C
    C   1.0     0.595737     0.075520     0.349463  Biso 1.000000     C
    C   1.0     0.134717     0.077106     0.415117  Biso 1.000000     C
    C   1.0     0.634714     0.077112     0.415120  Biso 1.000000     C
    C   1.0     0.460303     0.855959     0.499190  Biso 1.000000     C
    C   1.0     0.960306     0.855960     0.499192  Biso 1.000000     C
    C   1.0     0.384252     0.727980     0.757179  Biso 1.000000     C
    C   1.0     0.884257     0.727983     0.757180  Biso 1.000000     C
    C   1.0     0.304446     0.994668     0.656905  Biso 1.000000     C
    C   1.0     0.804447     0.994669     0.656905  Biso 1.000000     C
    C   1.0     0.423896     0.858121     0.574561  Biso 1.000000     C
    C   1.0     0.923902     0.858126     0.574565  Biso 1.000000     C
    C   1.0     0.425519     0.795556     0.631831  Biso 1.000000     C
    C   1.0     0.925525     0.795562     0.631835  Biso 1.000000     C
    C   1.0     0.385781     0.796201     0.697126  Biso 1.000000     C
    C   1.0     0.885787     0.796205     0.697129  Biso 1.000000     C
    C   1.0     0.345475     0.860215     0.705766  Biso 1.000000     C
    C   1.0     0.845478     0.860217     0.705767  Biso 1.000000     C
    C   1.0     0.345752     0.924499     0.650462  Biso 1.000000     C
    C   1.0     0.845754     0.924501     0.650464  Biso 1.000000     C
    C   1.0     0.384714     0.922899     0.584811  Biso 1.000000     C
    C   1.0     0.884719     0.922904     0.584814  Biso 1.000000     C
    C   1.0     0.039663     0.499208     0.855974  Biso 1.000000     C
    C   1.0     0.539663     0.499210     0.855975  Biso 1.000000     C
    C   1.0     0.115681     0.757230     0.727954  Biso 1.000000     C
    C   1.0     0.615682     0.757231     0.727954  Biso 1.000000     C
    C   1.0     0.195573     0.657014     0.994615  Biso 1.000000     C
    C   1.0     0.695574     0.657015     0.994616  Biso 1.000000     C
    C   1.0     0.076072     0.574609     0.858115  Biso 1.000000     C
    C   1.0     0.576071     0.574611     0.858117  Biso 1.000000     C
    C   1.0     0.074439     0.631863     0.795540  Biso 1.000000     C
    C   1.0     0.574439     0.631865     0.795542  Biso 1.000000     C
    C   1.0     0.114184     0.697179     0.796163  Biso 1.000000     C
    C   1.0     0.614185     0.697180     0.796164  Biso 1.000000     C
    C   1.0     0.154512     0.705861     0.860156  Biso 1.000000     C
    C   1.0     0.654513     0.705863     0.860158  Biso 1.000000     C
    C   1.0     0.154262     0.650564     0.924441  Biso 1.000000     C
    C   1.0     0.654261     0.650566     0.924443  Biso 1.000000     C
    C   1.0     0.115279     0.584901     0.922867  Biso 1.000000     C
    C   1.0     0.615277     0.584905     0.922870  Biso 1.000000     C
    C   1.0     0.289682     0.500769     0.143961  Biso 1.000000     C
    C   1.0     0.789683     0.500768     0.143962  Biso 1.000000     C
    C   1.0     0.365691     0.242754     0.271964  Biso 1.000000     C
    C   1.0     0.865692     0.242754     0.271963  Biso 1.000000     C
    C   1.0     0.445565     0.343026     0.005336  Biso 1.000000     C
    C   1.0     0.945566     0.343027     0.005335  Biso 1.000000     C
    C   1.0     0.326081     0.425378     0.141794  Biso 1.000000     C
    C   1.0     0.826077     0.425372     0.141788  Biso 1.000000     C
    C   1.0     0.324427     0.368082     0.204331  Biso 1.000000     C
    C   1.0     0.824423     0.368077     0.204325  Biso 1.000000     C
    C   1.0     0.364174     0.302785     0.203725  Biso 1.000000     C
    C   1.0     0.864170     0.302780     0.203719  Biso 1.000000     C
    C   1.0     0.404507     0.294146     0.139753  Biso 1.000000     C
    C   1.0     0.904505     0.294142     0.139750  Biso 1.000000     C
    C   1.0     0.404251     0.349464     0.075483  Biso 1.000000     C
    C   1.0     0.904249     0.349460     0.075479  Biso 1.000000     C
    C   1.0     0.365288     0.415129     0.077057  Biso 1.000000     C
    C   1.0     0.865284     0.415124     0.077052  Biso 1.000000     C
    C   1.0     0.164673     0.355952     0.000000  Biso 1.000000     C
    C   1.0     0.664673     0.355959     0.000000  Biso 1.000000     C
    C   1.0     0.240744     0.227948     0.742807  Biso 1.000000     C
    C   1.0     0.740746     0.227946     0.742806  Biso 1.000000     C
    C   1.0     0.320535     0.494693     0.843070  Biso 1.000000     C
    C   1.0     0.820534     0.494695     0.843062  Biso 1.000000     C
    C   1.0     0.201074     0.358128     0.925421  Biso 1.000000     C
    C   1.0     0.701083     0.358120     0.925427  Biso 1.000000     C
    C   1.0     0.199462     0.295536     0.868158  Biso 1.000000     C
    C   1.0     0.699471     0.295528     0.868164  Biso 1.000000     C
    C   1.0     0.239205     0.296177     0.802869  Biso 1.000000     C
    C   1.0     0.739215     0.296168     0.802876  Biso 1.000000     C
    C   1.0     0.279507     0.360207     0.794239  Biso 1.000000     C
    C   1.0     0.779513     0.360202     0.794243  Biso 1.000000     C
    C   1.0     0.279229     0.424511     0.849540  Biso 1.000000     C
    C   1.0     0.779236     0.424506     0.849543  Biso 1.000000     C
    C   1.0     0.240254     0.422924     0.915176  Biso 1.000000     C
    C   1.0     0.740261     0.422918     0.915179  Biso 1.000000     C
    C   1.0     0.414671     0.643958    -0.000757  Biso 1.000000     C
    C   1.0     0.914673     0.643958    -0.000757  Biso 1.000000     C
    C   1.0     0.490651     0.771933     0.257275  Biso 1.000000     C
    C   1.0     0.990651     0.771931     0.257276  Biso 1.000000     C
    C   1.0     0.070577     0.505282     0.156958  Biso 1.000000     C
    C   1.0     0.570577     0.505282     0.156959  Biso 1.000000     C
    C   1.0     0.451059     0.641732     0.074640  Biso 1.000000     C
    C   1.0     0.951060     0.641731     0.074640  Biso 1.000000     C
    C   1.0     0.449399     0.704266     0.131956  Biso 1.000000     C
    C   1.0     0.949399     0.704264     0.131958  Biso 1.000000     C
    C   1.0     0.489153     0.703672     0.197246  Biso 1.000000     C
    C   1.0     0.989152     0.703669     0.197248  Biso 1.000000     C
    C   1.0     0.029498     0.639702     0.205865  Biso 1.000000     C
    C   1.0     0.529500     0.639703     0.205864  Biso 1.000000     C
    C   1.0     0.029251     0.575426     0.150525  Biso 1.000000     C
    C   1.0     0.529252     0.575428     0.150525  Biso 1.000000     C
    C   1.0     0.490285     0.577000     0.084857  Biso 1.000000     C
    C   1.0     0.990286     0.577000     0.084856  Biso 1.000000     C
    O   1.0     0.385141     0.000000     0.318857  Biso 1.000000     O
    O   1.0     0.885143     0.000000     0.318860  Biso 1.000000     O
    O   1.0     0.312444     0.061499     0.391800  Biso 1.000000     O
    O   1.0     0.812445     0.061501     0.391799  Biso 1.000000     O
    O   1.0     0.298439     0.753428     0.171257  Biso 1.000000     O
    O   1.0     0.798432     0.753431     0.171250  Biso 1.000000     O
    O   1.0     0.221320     0.687327     0.229074  Biso 1.000000     O
    O   1.0     0.721321     0.687324     0.229075  Biso 1.000000     O
    O   1.0     0.129306     0.805481     0.483237  Biso 1.000000     O
    O   1.0     0.629307     0.805475     0.483237  Biso 1.000000     O
    O   1.0     0.192981     0.875174     0.560907  Biso 1.000000     O
    O   1.0     0.692982     0.875175     0.560901  Biso 1.000000     O
    O   1.0     0.135166    -0.002201     0.681167  Biso 1.000000     O
    O   1.0     0.635167    -0.002200     0.681165  Biso 1.000000     O
    O   1.0     0.062426     0.938473     0.608222  Biso 1.000000     O
    O   1.0     0.562427     0.938472     0.608222  Biso 1.000000     O
    O   1.0     0.048298     0.246464     0.828940  Biso 1.000000     O
    O   1.0     0.548294     0.246463     0.828941  Biso 1.000000     O
    O   1.0     0.471316     0.312659     0.770894  Biso 1.000000     O
    O   1.0     0.971318     0.312657     0.770896  Biso 1.000000     O
    O   1.0     0.379372     0.194530     0.516743  Biso 1.000000     O
    O   1.0     0.879372     0.194526     0.516745  Biso 1.000000     O
    O   1.0     0.443008     0.124780     0.439117  Biso 1.000000     O
    O   1.0     0.943009     0.124778     0.439119  Biso 1.000000     O
    O   1.0     0.260174     0.181222     0.502166  Biso 1.000000     O
    O   1.0     0.760174     0.181224     0.502165  Biso 1.000000     O
    O   1.0     0.187449     0.108268     0.561486  Biso 1.000000     O
    O   1.0     0.687451     0.108269     0.561487  Biso 1.000000     O
    O   1.0     0.173413     0.328884     0.253474  Biso 1.000000     O
    O   1.0     0.673410     0.328889     0.253477  Biso 1.000000     O
    O   1.0     0.096339     0.270928     0.187341  Biso 1.000000     O
    O   1.0     0.596339     0.270929     0.187339  Biso 1.000000     O
    O   1.0     0.004322     0.016746     0.305448  Biso 1.000000     O
    O   1.0     0.504322     0.016747     0.305449  Biso 1.000000     O
    O   1.0     0.067982     0.939187     0.375214  Biso 1.000000     O
    O   1.0     0.567983     0.939191     0.375217  Biso 1.000000     O
    O   1.0     0.010130     0.818761     0.497806  Biso 1.000000     O
    O   1.0     0.510130     0.818760     0.497806  Biso 1.000000     O
    O   1.0     0.437431     0.891731     0.438467  Biso 1.000000     O
    O   1.0     0.937433     0.891732     0.438469  Biso 1.000000     O
    O   1.0     0.423268     0.671053     0.746453  Biso 1.000000     O
    O   1.0     0.923275     0.671058     0.746456  Biso 1.000000     O
    O   1.0     0.346315     0.729125     0.812654  Biso 1.000000     O
    O   1.0     0.846318     0.729123     0.812653  Biso 1.000000     O
    O   1.0     0.254366     0.983247     0.694497  Biso 1.000000     O
    O   1.0     0.754367     0.983246     0.694496  Biso 1.000000     O
    O   1.0     0.318007     0.060837     0.624738  Biso 1.000000     O
    O   1.0     0.818008     0.060839     0.624741  Biso 1.000000     O
    O   1.0     0.489822     0.497798     0.818797  Biso 1.000000     O
    O   1.0     0.989824     0.497797     0.818797  Biso 1.000000     O
    O   1.0     0.062559     0.438490     0.891735  Biso 1.000000     O
    O   1.0     0.562560     0.438491     0.891734  Biso 1.000000     O
    O   1.0     0.076618     0.746505     0.671072  Biso 1.000000     O
    O   1.0     0.576619     0.746505     0.671072  Biso 1.000000     O
    O   1.0     0.153664     0.812678     0.729054  Biso 1.000000     O
    O   1.0     0.653666     0.812678     0.729054  Biso 1.000000     O
    O   1.0     0.245675     0.694582     0.983224  Biso 1.000000     O
    O   1.0     0.745676     0.694581     0.983222  Biso 1.000000     O
    O   1.0     0.182016     0.624787     0.060784  Biso 1.000000     O
    O   1.0     0.682018     0.624787     0.060784  Biso 1.000000     O
    O   1.0     0.239866     0.502171     0.181177  Biso 1.000000     O
    O   1.0     0.739866     0.502170     0.181177  Biso 1.000000     O
    O   1.0     0.312562     0.561507     0.108211  Biso 1.000000     O
    O   1.0     0.812564     0.561504     0.108211  Biso 1.000000     O
    O   1.0     0.326649     0.253483     0.328851  Biso 1.000000     O
    O   1.0     0.826650     0.253482     0.328849  Biso 1.000000     O
    O   1.0     0.403679     0.187330     0.270899  Biso 1.000000     O
    O   1.0     0.903680     0.187330     0.270900  Biso 1.000000     O
    O   1.0     0.495655     0.305458     0.016765  Biso 1.000000     O
    O   1.0     0.995655     0.305456     0.016765  Biso 1.000000     O
    O   1.0     0.432001     0.375197     0.939135  Biso 1.000000     O
    O   1.0     0.932002     0.375193     0.939133  Biso 1.000000     O
    O   1.0     0.114836     0.318756     0.000000  Biso 1.000000     O
    O   1.0     0.614839     0.318754     0.000000  Biso 1.000000     O
    O   1.0     0.187569     0.391714     0.061546  Biso 1.000000     O
    O   1.0     0.687571     0.391714     0.061548  Biso 1.000000     O
    O   1.0     0.201724     0.171013     0.753524  Biso 1.000000     O
    O   1.0     0.701728     0.171009     0.753527  Biso 1.000000     O
    O   1.0     0.278683     0.229098     0.687333  Biso 1.000000     O
    O   1.0     0.778685     0.229097     0.687332  Biso 1.000000     O
    O   1.0     0.370615     0.483238     0.805491  Biso 1.000000     O
    O   1.0     0.870619     0.483238     0.805493  Biso 1.000000     O
    O   1.0     0.306986     0.560900     0.875218  Biso 1.000000     O
    O   1.0     0.806988     0.560897     0.875223  Biso 1.000000     O
    O   1.0     0.364855     0.681185    -0.002128  Biso 1.000000     O
    O   1.0     0.864856     0.681183    -0.002129  Biso 1.000000     O
    O   1.0     0.437552     0.608237     0.938471  Biso 1.000000     O
    O   1.0     0.937554     0.608236     0.938471  Biso 1.000000     O
    O   1.0     0.451565     0.828780     0.246564  Biso 1.000000     O
    O   1.0     0.951564     0.828777     0.246566  Biso 1.000000     O
    O   1.0     0.028674     0.770930     0.312660  Biso 1.000000     O
    O   1.0     0.528676     0.770930     0.312661  Biso 1.000000     O
    O   1.0     0.120682     0.516753     0.194505  Biso 1.000000     O
    O   1.0     0.620683     0.516754     0.194506  Biso 1.000000     O
    O   1.0     0.057014     0.439072     0.124805  Biso 1.000000     O
    O   1.0     0.557015     0.439073     0.124804  Biso 1.000000     O
   Zn   1.0     0.453558     0.917160     0.323493  Biso 1.000000    Zn
   Zn   1.0     0.953559     0.917159     0.323493  Biso 1.000000    Zn
   Zn   1.0     0.203587     0.082802     0.676452  Biso 1.000000    Zn
   Zn   1.0     0.703588     0.082801     0.676451  Biso 1.000000    Zn
   Zn   1.0     0.328578     0.176518     0.417159  Biso 1.000000    Zn
   Zn   1.0     0.828580     0.176520     0.417160  Biso 1.000000    Zn
   Zn   1.0     0.078553     0.823493     0.582809  Biso 1.000000    Zn
   Zn   1.0     0.578553     0.823493     0.582808  Biso 1.000000    Zn
   Zn   1.0     0.421417     0.582823     0.823487  Biso 1.000000    Zn
   Zn   1.0     0.921419     0.582824     0.823486  Biso 1.000000    Zn
   Zn   1.0     0.171443     0.417170     0.176505  Biso 1.000000    Zn
   Zn   1.0     0.671444     0.417171     0.176504  Biso 1.000000    Zn
   Zn   1.0     0.046418     0.323508     0.917175  Biso 1.000000    Zn
   Zn   1.0     0.546419     0.323509     0.917175  Biso 1.000000    Zn
   Zn   1.0     0.296436     0.676521     0.082852  Biso 1.000000    Zn
   Zn   1.0     0.796436     0.676518     0.082850  Biso 1.000000    Zn
