#======================================================================

# CRYSTAL DATA

#----------------------------------------------------------------------

data_VESTA_phase_1


_pd_phase_name                         MOF
_cell_length_a                         22.60000
_cell_length_b                         16.50600
_cell_length_c                         16.50200
_cell_angle_alpha                      89.99800
_cell_angle_beta                       89.95800
_cell_angle_gamma                      89.97800
_symmetry_space_group_name_H-M         "P 1"
_symmetry_Int_Tables_number            1

loop_
_symmetry_equiv_pos_as_xyz
   "x, y, z"

loop_
   _atom_site_label
   _atom_site_occupancy
   _atom_site_fract_x
   _atom_site_fract_y
   _atom_site_fract_z
   _atom_site_adp_type
   _atom_site_B_iso_or_equiv
   _atom_site_type_symbol
    H   1.0     0.331476     0.870781     0.246321  Biso 1.000000     H
    H   1.0     0.831466     0.870781     0.246321  Biso 1.000000     H
    H   1.0     0.189534     0.741982     0.362145  Biso 1.000000     H
    H   1.0     0.689523     0.741982     0.362145  Biso 1.000000     H
    H   1.0     0.259969     0.957652     0.472705  Biso 1.000000     H
    H   1.0     0.759958     0.957652     0.472705  Biso 1.000000     H
    H   1.0     0.081262     0.129413     0.754007  Biso 1.000000     H
    H   1.0     0.581251     0.129413     0.754007  Biso 1.000000     H
    H   1.0     0.439491     0.258138     0.637820  Biso 1.000000     H
    H   1.0     0.939480     0.258138     0.637820  Biso 1.000000     H
    H   1.0     0.010169     0.042235     0.527667  Biso 1.000000     H
    H   1.0     0.510158     0.042235     0.527667  Biso 1.000000     H
    H   1.0     0.206426     0.253792     0.370765  Biso 1.000000     H
    H   1.0     0.706415     0.253792     0.370765  Biso 1.000000     H
    H   1.0     0.064791     0.137915     0.241654  Biso 1.000000     H
    H   1.0     0.564781     0.137915     0.241654  Biso 1.000000     H
    H   1.0     0.135190     0.027316     0.457405  Biso 1.000000     H
    H   1.0     0.635180     0.027316     0.457405  Biso 1.000000     H
    H   1.0     0.456470     0.746697     0.629443  Biso 1.000000     H
    H   1.0     0.956459     0.746697     0.629443  Biso 1.000000     H
    H   1.0     0.314098     0.861987     0.757960  Biso 1.000000     H
    H   1.0     0.814087     0.861987     0.757960  Biso 1.000000     H
    H   1.0     0.384950     0.972990     0.542607  Biso 1.000000     H
    H   1.0     0.884940     0.972990     0.542607  Biso 1.000000     H
    H   1.0     0.043664     0.629270     0.746452  Biso 1.000000     H
    H   1.0     0.543654     0.629271     0.746452  Biso 1.000000     H
    H   1.0     0.185422     0.758219     0.862232  Biso 1.000000     H
    H   1.0     0.685412     0.758219     0.862232  Biso 1.000000     H
    H   1.0     0.114866     0.542619     0.972947  Biso 1.000000     H
    H   1.0     0.614855     0.542619     0.972947  Biso 1.000000     H
    H   1.0     0.293491     0.370721     0.253521  Biso 1.000000     H
    H   1.0     0.793481     0.370721     0.253521  Biso 1.000000     H
    H   1.0     0.435613     0.241963     0.137921  Biso 1.000000     H
    H   1.0     0.935602     0.241963     0.137921  Biso 1.000000     H
    H   1.0     0.365131     0.457631     0.027244  Biso 1.000000     H
    H   1.0     0.865121     0.457631     0.027244  Biso 1.000000     H
    H   1.0     0.168620     0.246754     0.870622  Biso 1.000000     H
    H   1.0     0.668609     0.246754     0.870622  Biso 1.000000     H
    H   1.0     0.310926     0.361993     0.742042  Biso 1.000000     H
    H   1.0     0.810916     0.361993     0.742042  Biso 1.000000     H
    H   1.0     0.240073     0.473002     0.957438  Biso 1.000000     H
    H   1.0     0.740062     0.473002     0.957438  Biso 1.000000     H
    H   1.0     0.418743     0.754023     0.129129  Biso 1.000000     H
    H   1.0     0.918732     0.754023     0.129129  Biso 1.000000     H
    H   1.0     0.060413     0.637967     0.258183  Biso 1.000000     H
    H   1.0     0.560402     0.637967     0.258183  Biso 1.000000     H
    H   1.0     0.489844     0.527347     0.042598  Biso 1.000000     H
    H   1.0     0.989833     0.527347     0.042598  Biso 1.000000     H
   Li   1.0     0.064557     0.824430     0.402562  Biso 1.000000    Li
   Li   1.0     0.564547     0.824430     0.402562  Biso 1.000000    Li
   Li   1.0     0.314547     0.175581     0.597332  Biso 1.000000    Li
   Li   1.0     0.814537     0.175581     0.597332  Biso 1.000000    Li
   Li   1.0     0.439669     0.097503     0.324332  Biso 1.000000    Li
   Li   1.0     0.939659     0.097503     0.324332  Biso 1.000000    Li
   Li   1.0     0.189381     0.902587     0.675804  Biso 1.000000    Li
   Li   1.0     0.689370     0.902587     0.675804  Biso 1.000000    Li
   Li   1.0     0.310462     0.675628     0.902700  Biso 1.000000    Li
   Li   1.0     0.810452     0.675628     0.902700  Biso 1.000000    Li
   Li   1.0     0.060646     0.324397     0.097521  Biso 1.000000    Li
   Li   1.0     0.560636     0.324397     0.097521  Biso 1.000000    Li
   Li   1.0     0.435731     0.402719     0.824414  Biso 1.000000    Li
   Li   1.0     0.935721     0.402719     0.824414  Biso 1.000000    Li
   Li   1.0     0.185407     0.597508     0.175795  Biso 1.000000    Li
   Li   1.0     0.685397     0.597508     0.175795  Biso 1.000000    Li
    C   1.0     0.335895     0.998119     0.356356  Biso 1.000000     C
    C   1.0     0.835885     0.998119     0.356356  Biso 1.000000     C
    C   1.0     0.258804     0.739542     0.230527  Biso 1.000000     C
    C   1.0     0.758793     0.739542     0.230527  Biso 1.000000     C
    C   1.0     0.180285     0.842737     0.496684  Biso 1.000000     C
    C   1.0     0.680275     0.842737     0.496684  Biso 1.000000     C
    C   1.0     0.299592     0.922746     0.359054  Biso 1.000000     C
    C   1.0     0.799581     0.922746     0.359055  Biso 1.000000     C
    C   1.0     0.300875     0.864971     0.296984  Biso 1.000000     C
    C   1.0     0.800865     0.864971     0.296984  Biso 1.000000     C
    C   1.0     0.260873     0.800039     0.298325  Biso 1.000000     C
    C   1.0     0.760863     0.800039     0.298325  Biso 1.000000     C
    C   1.0     0.220710     0.792252     0.362531  Biso 1.000000     C
    C   1.0     0.720699     0.792252     0.362532  Biso 1.000000     C
    C   1.0     0.221427     0.847972     0.426385  Biso 1.000000     C
    C   1.0     0.721417     0.847972     0.426385  Biso 1.000000     C
    C   1.0     0.260576     0.913237     0.424068  Biso 1.000000     C
    C   1.0     0.760566     0.913237     0.424068  Biso 1.000000     C
    C   1.0     0.085792     0.001866     0.644478  Biso 1.000000     C
    C   1.0     0.585781     0.001866     0.644478  Biso 1.000000     C
    C   1.0     0.008614     0.260607     0.769558  Biso 1.000000     C
    C   1.0     0.508604     0.260607     0.769558  Biso 1.000000     C
    C   1.0     0.430560     0.157322     0.503328  Biso 1.000000     C
    C   1.0     0.930549     0.157323     0.503328  Biso 1.000000     C
    C   1.0     0.049540     0.077276     0.641364  Biso 1.000000     C
    C   1.0     0.549529     0.077276     0.641364  Biso 1.000000     C
    C   1.0     0.050745     0.135159     0.703301  Biso 1.000000     C
    C   1.0     0.550735     0.135159     0.703301  Biso 1.000000     C
    C   1.0     0.010749     0.200104     0.701804  Biso 1.000000     C
    C   1.0     0.510739     0.200104     0.701804  Biso 1.000000     C
    C   1.0     0.470678     0.207845     0.637547  Biso 1.000000     C
    C   1.0     0.970668     0.207845     0.637547  Biso 1.000000     C
    C   1.0     0.471534     0.152058     0.573751  Biso 1.000000     C
    C   1.0     0.971523     0.152058     0.573751  Biso 1.000000     C
    C   1.0     0.010671     0.086719     0.576248  Biso 1.000000     C
    C   1.0     0.510661     0.086719     0.576248  Biso 1.000000     C
    C   1.0     0.210872     0.143743     0.498067  Biso 1.000000     C
    C   1.0     0.710861     0.143743     0.498067  Biso 1.000000     C
    C   1.0     0.133906     0.269556     0.239450  Biso 1.000000     C
    C   1.0     0.633895     0.269556     0.239450  Biso 1.000000     C
    C   1.0     0.055589     0.003328     0.342523  Biso 1.000000     C
    C   1.0     0.555578     0.003328     0.342522  Biso 1.000000     C
    C   1.0     0.174672     0.141004     0.422615  Biso 1.000000     C
    C   1.0     0.674661     0.141004     0.422615  Biso 1.000000     C
    C   1.0     0.175929     0.203084     0.364862  Biso 1.000000     C
    C   1.0     0.675919     0.203084     0.364862  Biso 1.000000     C
    C   1.0     0.135987     0.201726     0.299878  Biso 1.000000     C
    C   1.0     0.635977     0.201726     0.299878  Biso 1.000000     C
    C   1.0     0.095916     0.137498     0.291983  Biso 1.000000     C
    C   1.0     0.595906     0.137498     0.291983  Biso 1.000000     C
    C   1.0     0.096653     0.073650     0.347708  Biso 1.000000     C
    C   1.0     0.596642     0.073650     0.347708  Biso 1.000000     C
    C   1.0     0.135771     0.075965     0.413006  Biso 1.000000     C
    C   1.0     0.635760     0.075965     0.413006  Biso 1.000000     C
    C   1.0     0.460908     0.856611     0.502078  Biso 1.000000     C
    C   1.0     0.960897     0.856611     0.502078  Biso 1.000000     C
    C   1.0     0.383550     0.730570     0.760525  Biso 1.000000     C
    C   1.0     0.883540     0.730570     0.760524  Biso 1.000000     C
    C   1.0     0.304858     0.996478     0.657401  Biso 1.000000     C
    C   1.0     0.804847     0.996478     0.657401  Biso 1.000000     C
    C   1.0     0.424578     0.859374     0.577493  Biso 1.000000     C
    C   1.0     0.924567     0.859374     0.577493  Biso 1.000000     C
    C   1.0     0.425815     0.797279     0.635242  Biso 1.000000     C
    C   1.0     0.925804     0.797279     0.635242  Biso 1.000000     C
    C   1.0     0.385677     0.798443     0.700089  Biso 1.000000     C
    C   1.0     0.885666     0.798443     0.700089  Biso 1.000000     C
    C   1.0     0.345439     0.862540     0.707826  Biso 1.000000     C
    C   1.0     0.845429     0.862540     0.707826  Biso 1.000000     C
    C   1.0     0.346221     0.926465     0.652166  Biso 1.000000     C
    C   1.0     0.846210     0.926465     0.652166  Biso 1.000000     C
    C   1.0     0.385520     0.924322     0.586992  Biso 1.000000     C
    C   1.0     0.885510     0.924322     0.586992  Biso 1.000000     C
    C   1.0     0.039206     0.501983     0.856445  Biso 1.000000     C
    C   1.0     0.539196     0.501983     0.856445  Biso 1.000000     C
    C   1.0     0.116274     0.760474     0.730583  Biso 1.000000     C
    C   1.0     0.616264     0.760474     0.730583  Biso 1.000000     C
    C   1.0     0.194491     0.657498     0.996846  Biso 1.000000     C
    C   1.0     0.694480     0.657498     0.996846  Biso 1.000000     C
    C   1.0     0.075419     0.577404     0.859232  Biso 1.000000     C
    C   1.0     0.575409     0.577404     0.859232  Biso 1.000000     C
    C   1.0     0.074185     0.635138     0.797135  Biso 1.000000     C
    C   1.0     0.574175     0.635138     0.797135  Biso 1.000000     C
    C   1.0     0.114160     0.700084     0.798448  Biso 1.000000     C
    C   1.0     0.614150     0.700084     0.798448  Biso 1.000000     C
    C   1.0     0.154250     0.707943     0.862648  Biso 1.000000     C
    C   1.0     0.654240     0.707943     0.862647  Biso 1.000000     C
    C   1.0     0.153446     0.652273     0.926540  Biso 1.000000     C
    C   1.0     0.653435     0.652273     0.926540  Biso 1.000000     C
    C   1.0     0.114317     0.586990     0.924268  Biso 1.000000     C
    C   1.0     0.614307     0.586990     0.924268  Biso 1.000000     C
    C   1.0     0.289111     0.498065     0.143573  Biso 1.000000     C
    C   1.0     0.789101     0.498065     0.143573  Biso 1.000000     C
    C   1.0     0.366280     0.239514     0.269481  Biso 1.000000     C
    C   1.0     0.866269     0.239514     0.269481  Biso 1.000000     C
    C   1.0     0.445094     0.342672     0.003603  Biso 1.000000     C
    C   1.0     0.945083     0.342672     0.003603  Biso 1.000000     C
    C   1.0     0.325420     0.422659     0.140814  Biso 1.000000     C
    C   1.0     0.825410     0.422659     0.140814  Biso 1.000000     C
    C   1.0     0.324127     0.364891     0.202895  Biso 1.000000     C
    C   1.0     0.824116     0.364891     0.202895  Biso 1.000000     C
    C   1.0     0.364172     0.299967     0.201632  Biso 1.000000     C
    C   1.0     0.864161     0.299967     0.201632  Biso 1.000000     C
    C   1.0     0.404379     0.292196     0.137478  Biso 1.000000     C
    C   1.0     0.904369     0.292196     0.137478  Biso 1.000000     C
    C   1.0     0.403699     0.347924     0.073614  Biso 1.000000     C
    C   1.0     0.903688     0.347924     0.073614  Biso 1.000000     C
    C   1.0     0.364497     0.413174     0.075848  Biso 1.000000     C
    C   1.0     0.864487     0.413174     0.075848  Biso 1.000000     C
    C   1.0     0.164180     0.356604     0.997990  Biso 1.000000     C
    C   1.0     0.664169     0.356604     0.997990  Biso 1.000000     C
    C   1.0     0.241472     0.230619     0.739491  Biso 1.000000     C
    C   1.0     0.741462     0.230619     0.739491  Biso 1.000000     C
    C   1.0     0.320155     0.496465     0.842629  Biso 1.000000     C
    C   1.0     0.820145     0.496465     0.842629  Biso 1.000000     C
    C   1.0     0.200486     0.359410     0.922556  Biso 1.000000     C
    C   1.0     0.700475     0.359410     0.922556  Biso 1.000000     C
    C   1.0     0.199254     0.297325     0.864805  Biso 1.000000     C
    C   1.0     0.699243     0.297325     0.864805  Biso 1.000000     C
    C   1.0     0.239367     0.298486     0.799931  Biso 1.000000     C
    C   1.0     0.739356     0.298486     0.799931  Biso 1.000000     C
    C   1.0     0.279595     0.362553     0.792188  Biso 1.000000     C
    C   1.0     0.779584     0.362553     0.792188  Biso 1.000000     C
    C   1.0     0.278806     0.426474     0.847855  Biso 1.000000     C
    C   1.0     0.778796     0.426474     0.847855  Biso 1.000000     C
    C   1.0     0.239517     0.424345     0.913045  Biso 1.000000     C
    C   1.0     0.739507     0.424345     0.913045  Biso 1.000000     C
    C   1.0     0.414169     0.643818     0.001920  Biso 1.000000     C
    C   1.0     0.914159     0.643818     0.001920  Biso 1.000000     C
    C   1.0     0.491290     0.769655     0.260498  Biso 1.000000     C
    C   1.0     0.991280     0.769655     0.260498  Biso 1.000000     C
    C   1.0     0.069488     0.503331     0.157468  Biso 1.000000     C
    C   1.0     0.569477     0.503331     0.157469  Biso 1.000000     C
    C   1.0     0.450434     0.641148     0.077324  Biso 1.000000     C
    C   1.0     0.950424     0.641149     0.077324  Biso 1.000000     C
    C   1.0     0.449234     0.703276     0.135035  Biso 1.000000     C
    C   1.0     0.949223     0.703276     0.135035  Biso 1.000000     C
    C   1.0     0.489199     0.701881     0.200002  Biso 1.000000     C
    C   1.0     0.989189     0.701881     0.200002  Biso 1.000000     C
    C   1.0     0.029264     0.637596     0.207883  Biso 1.000000     C
    C   1.0     0.529253     0.637597     0.207883  Biso 1.000000     C
    C   1.0     0.028462     0.573713     0.152213  Biso 1.000000     C
    C   1.0     0.528452     0.573713     0.152213  Biso 1.000000     C
    C   1.0     0.489311     0.576043     0.086945  Biso 1.000000     C
    C   1.0     0.989301     0.576043     0.086946  Biso 1.000000     C
    O   1.0     0.385659     0.999652     0.319227  Biso 1.000000     O
    O   1.0     0.885649     0.999652     0.319227  Biso 1.000000     O
    O   1.0     0.312829     0.058854     0.391863  Biso 1.000000     O
    O   1.0     0.812818     0.058854     0.391863  Biso 1.000000     O
    O   1.0     0.297510     0.749859     0.173264  Biso 1.000000     O
    O   1.0     0.797500     0.749859     0.173264  Biso 1.000000     O
    O   1.0     0.220743     0.684304     0.232354  Biso 1.000000     O
    O   1.0     0.720733     0.684304     0.232354  Biso 1.000000     O
    O   1.0     0.129965     0.805795     0.485754  Biso 1.000000     O
    O   1.0     0.629955     0.805795     0.485754  Biso 1.000000     O
    O   1.0     0.194090     0.875388     0.562506  Biso 1.000000     O
    O   1.0     0.694079     0.875388     0.562506  Biso 1.000000     O
    O   1.0     0.135708     0.000599     0.681085  Biso 1.000000     O
    O   1.0     0.635698     0.000599     0.681085  Biso 1.000000     O
    O   1.0     0.062501     0.940790     0.609977  Biso 1.000000     O
    O   1.0     0.562491     0.940790     0.609977  Biso 1.000000     O
    O   1.0     0.047342     0.250327     0.826749  Biso 1.000000     O
    O   1.0     0.547332     0.250327     0.826749  Biso 1.000000     O
    O   1.0     0.470466     0.315767     0.767712  Biso 1.000000     O
    O   1.0     0.970455     0.315767     0.767712  Biso 1.000000     O
    O   1.0     0.380118     0.194086     0.514246  Biso 1.000000     O
    O   1.0     0.880108     0.194086     0.514246  Biso 1.000000     O
    O   1.0     0.444653     0.124879     0.437494  Biso 1.000000     O
    O   1.0     0.944642     0.124879     0.437494  Biso 1.000000     O
    O   1.0     0.260611     0.180861     0.499603  Biso 1.000000     O
    O   1.0     0.760600     0.180861     0.499603  Biso 1.000000     O
    O   1.0     0.187746     0.108310     0.558820  Biso 1.000000     O
    O   1.0     0.687735     0.108310     0.558820  Biso 1.000000     O
    O   1.0     0.172543     0.326821     0.249832  Biso 1.000000     O
    O   1.0     0.672532     0.326821     0.249831  Biso 1.000000     O
    O   1.0     0.095900     0.267728     0.184160  Biso 1.000000     O
    O   1.0     0.595890     0.267728     0.184160  Biso 1.000000     O
    O   1.0     0.005177     0.014272     0.305783  Biso 1.000000     O
    O   1.0     0.505167     0.014272     0.305783  Biso 1.000000     O
    O   1.0     0.069590     0.937539     0.375054  Biso 1.000000     O
    O   1.0     0.569579     0.937539     0.375054  Biso 1.000000     O
    O   1.0     0.010666     0.819470     0.500548  Biso 1.000000     O
    O   1.0     0.510656     0.819470     0.500548  Biso 1.000000     O
    O   1.0     0.437845     0.891998     0.441272  Biso 1.000000     O
    O   1.0     0.937834     0.891998     0.441272  Biso 1.000000     O
    O   1.0     0.422332     0.673399     0.750242  Biso 1.000000     O
    O   1.0     0.922321     0.673399     0.750242  Biso 1.000000     O
    O   1.0     0.345376     0.732337     0.815686  Biso 1.000000     O
    O   1.0     0.845366     0.732337     0.815686  Biso 1.000000     O
    O   1.0     0.254690     0.985376     0.694670  Biso 1.000000     O
    O   1.0     0.754680     0.985376     0.694670  Biso 1.000000     O
    O   1.0     0.318191     0.062359     0.624484  Biso 1.000000     O
    O   1.0     0.818180     0.062359     0.624484  Biso 1.000000     O
    O   1.0     0.489515     0.500466     0.819228  Biso 1.000000     O
    O   1.0     0.989504     0.500466     0.819228  Biso 1.000000     O
    O   1.0     0.062287     0.441220     0.891888  Biso 1.000000     O
    O   1.0     0.562276     0.441220     0.891888  Biso 1.000000     O
    O   1.0     0.077570     0.750118     0.673397  Biso 1.000000     O
    O   1.0     0.577560     0.750118     0.673397  Biso 1.000000     O
    O   1.0     0.154380     0.815652     0.732309  Biso 1.000000     O
    O   1.0     0.654370     0.815652     0.732309  Biso 1.000000     O
    O   1.0     0.244917     0.694203     0.985825  Biso 1.000000     O
    O   1.0     0.744906     0.694203     0.985825  Biso 1.000000     O
    O   1.0     0.180479     0.625008     0.062674  Biso 1.000000     O
    O   1.0     0.680469     0.625008     0.062674  Biso 1.000000     O
    O   1.0     0.239373     0.499611     0.180762  Biso 1.000000     O
    O   1.0     0.739363     0.499611     0.180762  Biso 1.000000     O
    O   1.0     0.312176     0.558823     0.108099  Biso 1.000000     O
    O   1.0     0.812165     0.558823     0.108099  Biso 1.000000     O
    O   1.0     0.327535     0.249816     0.326712  Biso 1.000000     O
    O   1.0     0.827524     0.249816     0.326712  Biso 1.000000     O
    O   1.0     0.404419     0.184334     0.267708  Biso 1.000000     O
    O   1.0     0.904408     0.184334     0.267708  Biso 1.000000     O
    O   1.0     0.495260     0.305420     0.014770  Biso 1.000000     O
    O   1.0     0.995250     0.305420     0.014770  Biso 1.000000     O
    O   1.0     0.431794     0.375557     0.937691  Biso 1.000000     O
    O   1.0     0.931784     0.375557     0.937691  Biso 1.000000     O
    O   1.0     0.114512     0.319348     0.999558  Biso 1.000000     O
    O   1.0     0.614501     0.319348     0.999558  Biso 1.000000     O
    O   1.0     0.187211     0.392044     0.058759  Biso 1.000000     O
    O   1.0     0.687201     0.392044     0.058759  Biso 1.000000     O
    O   1.0     0.202687     0.173495     0.749785  Biso 1.000000     O
    O   1.0     0.702677     0.173495     0.749785  Biso 1.000000     O
    O   1.0     0.279635     0.232347     0.684316  Biso 1.000000     O
    O   1.0     0.779625     0.232347     0.684316  Biso 1.000000     O
    O   1.0     0.370352     0.485309     0.805408  Biso 1.000000     O
    O   1.0     0.870342     0.485309     0.805408  Biso 1.000000     O
    O   1.0     0.306808     0.562379     0.875513  Biso 1.000000     O
    O   1.0     0.806797     0.562379     0.875513  Biso 1.000000     O
    O   1.0     0.364399     0.680899     0.000415  Biso 1.000000     O
    O   1.0     0.864388     0.680899     0.000415  Biso 1.000000     O
    O   1.0     0.437262     0.608325     0.941184  Biso 1.000000     O
    O   1.0     0.937251     0.608325     0.941184  Biso 1.000000     O
    O   1.0     0.452557     0.826867     0.250230  Biso 1.000000     O
    O   1.0     0.952547     0.826867     0.250230  Biso 1.000000     O
    O   1.0     0.029369     0.767807     0.315721  Biso 1.000000     O
    O   1.0     0.529358     0.767807     0.315721  Biso 1.000000     O
    O   1.0     0.119886     0.514250     0.194235  Biso 1.000000     O
    O   1.0     0.619875     0.514250     0.194235  Biso 1.000000     O
    O   1.0     0.055473     0.437516     0.124996  Biso 1.000000     O
    O   1.0     0.555462     0.437516     0.124996  Biso 1.000000     O
   Zn   1.0     0.454806     0.915885     0.326418  Biso 1.000000    Zn
   Zn   1.0     0.954795     0.915885     0.326418  Biso 1.000000    Zn
   Zn   1.0     0.204800     0.084385     0.673620  Biso 1.000000    Zn
   Zn   1.0     0.704789     0.084385     0.673620  Biso 1.000000    Zn
   Zn   1.0     0.329793     0.173631     0.415784  Biso 1.000000    Zn
   Zn   1.0     0.829782     0.173631     0.415784  Biso 1.000000    Zn
   Zn   1.0     0.079777     0.826423     0.584468  Biso 1.000000    Zn
   Zn   1.0     0.579766     0.826423     0.584468  Biso 1.000000    Zn
   Zn   1.0     0.420221     0.584278     0.826409  Biso 1.000000    Zn
   Zn   1.0     0.920211     0.584278     0.826409  Biso 1.000000    Zn
   Zn   1.0     0.170220     0.415822     0.173604  Biso 1.000000    Zn
   Zn   1.0     0.670209     0.415822     0.173604  Biso 1.000000    Zn
   Zn   1.0     0.045229     0.326452     0.915855  Biso 1.000000    Zn
   Zn   1.0     0.545218     0.326452     0.915855  Biso 1.000000    Zn
   Zn   1.0     0.295220     0.673628     0.084269  Biso 1.000000    Zn
   Zn   1.0     0.795210     0.673628     0.084269  Biso 1.000000    Zn
