#======================================================================

# CRYSTAL DATA

#----------------------------------------------------------------------

data_VESTA_phase_1


_pd_phase_name                         MOF
_cell_length_a                         22.65200
_cell_length_b                         16.49300
_cell_length_c                         16.49700
_cell_angle_alpha                      89.99800
_cell_angle_beta                       90.03400
_cell_angle_gamma                      89.95200
_symmetry_space_group_name_H-M         "P 1"
_symmetry_Int_Tables_number            1

loop_
_symmetry_equiv_pos_as_xyz
   "x, y, z"

loop_
   _atom_site_label
   _atom_site_occupancy
   _atom_site_fract_x
   _atom_site_fract_y
   _atom_site_fract_z
   _atom_site_adp_type
   _atom_site_B_iso_or_equiv
   _atom_site_type_symbol
    H   1.0     0.043599     0.746034     0.628848  Biso 1.000000     H
    H   1.0     0.543603     0.746031     0.628847  Biso 1.000000     H
    H   1.0     0.185818     0.860501     0.757682  Biso 1.000000     H
    H   1.0     0.685823     0.860494     0.757683  Biso 1.000000     H
    H   1.0     0.115263     0.972397     0.542534  Biso 1.000000     H
    H   1.0     0.615269     0.972392     0.542535  Biso 1.000000     H
    H   1.0     0.293506     0.254333     0.371511  Biso 1.000000     H
    H   1.0     0.793512     0.254336     0.371512  Biso 1.000000     H
    H   1.0     0.435735     0.139894     0.242598  Biso 1.000000     H
    H   1.0     0.935739     0.139895     0.242597  Biso 1.000000     H
    H   1.0     0.365191     0.027576     0.457325  Biso 1.000000     H
    H   1.0     0.865197     0.027581     0.457328  Biso 1.000000     H
    H   1.0     0.168533     0.871334     0.245683  Biso 1.000000     H
    H   1.0     0.668538     0.871333     0.245684  Biso 1.000000     H
    H   1.0     0.310891     0.742341     0.360028  Biso 1.000000     H
    H   1.0     0.810896     0.742339     0.360028  Biso 1.000000     H
    H   1.0     0.240238     0.957234     0.472254  Biso 1.000000     H
    H   1.0     0.740245     0.957235     0.472253  Biso 1.000000     H
    H   1.0     0.418642     0.128704     0.754248  Biso 1.000000     H
    H   1.0     0.918646     0.128703     0.754248  Biso 1.000000     H
    H   1.0     0.060729     0.257573     0.639744  Biso 1.000000     H
    H   1.0     0.560732     0.257575     0.639737  Biso 1.000000     H
    H   1.0     0.490165     0.042637     0.527692  Biso 1.000000     H
    H   1.0     0.990174     0.042637     0.527693  Biso 1.000000     H
    H   1.0     0.081364     0.754190     0.128682  Biso 1.000000     H
    H   1.0     0.581369     0.754193     0.128681  Biso 1.000000     H
    H   1.0     0.439295     0.639663     0.257562  Biso 1.000000     H
    H   1.0     0.939299     0.639661     0.257563  Biso 1.000000     H
    H   1.0     0.009809     0.527662     0.042565  Biso 1.000000     H
    H   1.0     0.509815     0.527665     0.042564  Biso 1.000000     H
    H   1.0     0.331478     0.245692     0.871330  Biso 1.000000     H
    H   1.0     0.831483     0.245690     0.871330  Biso 1.000000     H
    H   1.0     0.189178     0.360198     0.742377  Biso 1.000000     H
    H   1.0     0.689180     0.360193     0.742380  Biso 1.000000     H
    H   1.0     0.259761     0.472318     0.957296  Biso 1.000000     H
    H   1.0     0.759770     0.472321     0.957290  Biso 1.000000     H
    H   1.0     0.456409     0.628850     0.745934  Biso 1.000000     H
    H   1.0     0.956413     0.628849     0.745933  Biso 1.000000     H
    H   1.0     0.314123     0.757764     0.860295  Biso 1.000000     H
    H   1.0     0.814128     0.757764     0.860295  Biso 1.000000     H
    H   1.0     0.384751     0.542675     0.972315  Biso 1.000000     H
    H   1.0     0.884758     0.542676     0.972315  Biso 1.000000     H
    H   1.0     0.206481     0.371492     0.254309  Biso 1.000000     H
    H   1.0     0.706488     0.371488     0.254303  Biso 1.000000     H
    H   1.0     0.064239     0.242597     0.139984  Biso 1.000000     H
    H   1.0     0.564246     0.242593     0.139976  Biso 1.000000     H
    H   1.0     0.134814     0.457295     0.027600  Biso 1.000000     H
    H   1.0     0.634818     0.457296     0.027597  Biso 1.000000     H
   Li   1.0     0.310899     0.902191     0.674279  Biso 1.000000    Li
   Li   1.0     0.810905     0.902191     0.674278  Biso 1.000000    Li
   Li   1.0     0.060741     0.098119     0.325446  Biso 1.000000    Li
   Li   1.0     0.560745     0.098119     0.325439  Biso 1.000000    Li
   Li   1.0     0.435969     0.825455     0.402071  Biso 1.000000    Li
   Li   1.0     0.935975     0.825457     0.402071  Biso 1.000000    Li
   Li   1.0     0.185746     0.174590     0.597850  Biso 1.000000    Li
   Li   1.0     0.685746     0.174585     0.597847  Biso 1.000000    Li
   Li   1.0     0.314244     0.597857     0.174405  Biso 1.000000    Li
   Li   1.0     0.814247     0.597858     0.174405  Biso 1.000000    Li
   Li   1.0     0.064106     0.402043     0.825567  Biso 1.000000    Li
   Li   1.0     0.564111     0.402044     0.825562  Biso 1.000000    Li
   Li   1.0     0.189037     0.674542     0.902153  Biso 1.000000    Li
   Li   1.0     0.689044     0.674539     0.902152  Biso 1.000000    Li
   Li   1.0     0.439222     0.325379     0.098095  Biso 1.000000    Li
   Li   1.0     0.939226     0.325380     0.098094  Biso 1.000000    Li
    C   1.0     0.039256     0.856425     0.501806  Biso 1.000000     C
    C   1.0     0.539261     0.856423     0.501806  Biso 1.000000     C
    C   1.0     0.116280     0.729377     0.760011  Biso 1.000000     C
    C   1.0     0.616285     0.729368     0.760007  Biso 1.000000     C
    C   1.0     0.195416     0.995104     0.657210  Biso 1.000000     C
    C   1.0     0.695421     0.995099     0.657209  Biso 1.000000     C
    C   1.0     0.075539     0.858834     0.577222  Biso 1.000000     C
    C   1.0     0.575545     0.858828     0.577220  Biso 1.000000     C
    C   1.0     0.074237     0.796524     0.634804  Biso 1.000000     C
    C   1.0     0.574241     0.796520     0.634805  Biso 1.000000     C
    C   1.0     0.114283     0.797376     0.699661  Biso 1.000000     C
    C   1.0     0.614290     0.797369     0.699659  Biso 1.000000     C
    C   1.0     0.154558     0.861289     0.707532  Biso 1.000000     C
    C   1.0     0.654562     0.861285     0.707533  Biso 1.000000     C
    C   1.0     0.153931     0.925347     0.651952  Biso 1.000000     C
    C   1.0     0.653938     0.925341     0.651951  Biso 1.000000     C
    C   1.0     0.114651     0.923592     0.586824  Biso 1.000000     C
    C   1.0     0.614656     0.923587     0.586824  Biso 1.000000     C
    C   1.0     0.289175     0.143596     0.498225  Biso 1.000000     C
    C   1.0     0.789180     0.143600     0.498226  Biso 1.000000     C
    C   1.0     0.366301     0.271258     0.240616  Biso 1.000000     C
    C   1.0     0.866306     0.271260     0.240614  Biso 1.000000     C
    C   1.0     0.445367     0.004994     0.342706  Biso 1.000000     C
    C   1.0     0.945372     0.004996     0.342708  Biso 1.000000     C
    C   1.0     0.325450     0.141312     0.422854  Biso 1.000000     C
    C   1.0     0.825459     0.141321     0.422859  Biso 1.000000     C
    C   1.0     0.324162     0.203806     0.365465  Biso 1.000000     C
    C   1.0     0.824164     0.203807     0.365462  Biso 1.000000     C
    C   1.0     0.364228     0.203044     0.300693  Biso 1.000000     C
    C   1.0     0.864238     0.203052     0.300699  Biso 1.000000     C
    C   1.0     0.404494     0.139046     0.292714  Biso 1.000000     C
    C   1.0     0.904495     0.139044     0.292710  Biso 1.000000     C
    C   1.0     0.403844     0.074806     0.348077  Biso 1.000000     C
    C   1.0     0.903854     0.074814     0.348084  Biso 1.000000     C
    C   1.0     0.364568     0.076489     0.413151  Biso 1.000000     C
    C   1.0     0.864572     0.076492     0.413152  Biso 1.000000     C
    C   1.0     0.164168     0.998186     0.356334  Biso 1.000000     C
    C   1.0     0.664173     0.998186     0.356333  Biso 1.000000     C
    C   1.0     0.241338     0.740322     0.228785  Biso 1.000000     C
    C   1.0     0.741342     0.740322     0.228785  Biso 1.000000     C
    C   1.0     0.320470     0.842646     0.494847  Biso 1.000000     C
    C   1.0     0.820477     0.842646     0.494846  Biso 1.000000     C
    C   1.0     0.200481     0.922752     0.358601  Biso 1.000000     C
    C   1.0     0.700490     0.922755     0.358598  Biso 1.000000     C
    C   1.0     0.199207     0.865300     0.296175  Biso 1.000000     C
    C   1.0     0.699210     0.865297     0.296177  Biso 1.000000     C
    C   1.0     0.239308     0.800465     0.296946  Biso 1.000000     C
    C   1.0     0.739316     0.800469     0.296943  Biso 1.000000     C
    C   1.0     0.279611     0.792490     0.360885  Biso 1.000000     C
    C   1.0     0.779614     0.792486     0.360887  Biso 1.000000     C
    C   1.0     0.278958     0.847937     0.425048  Biso 1.000000     C
    C   1.0     0.778967     0.847941     0.425045  Biso 1.000000     C
    C   1.0     0.239626     0.913042     0.423368  Biso 1.000000     C
    C   1.0     0.739631     0.913041     0.423369  Biso 1.000000     C
    C   1.0     0.414260     0.001801     0.643617  Biso 1.000000     C
    C   1.0     0.914265     0.001801     0.643616  Biso 1.000000     C
    C   1.0     0.491341     0.259661     0.771073  Biso 1.000000     C
    C   1.0     0.991346     0.259658     0.771078  Biso 1.000000     C
    C   1.0     0.070172     0.157227     0.504840  Biso 1.000000     C
    C   1.0     0.570165     0.157227     0.504824  Biso 1.000000     C
    C   1.0     0.450534     0.077181     0.641356  Biso 1.000000     C
    C   1.0     0.950538     0.077182     0.641354  Biso 1.000000     C
    C   1.0     0.449259     0.134677     0.703744  Biso 1.000000     C
    C   1.0     0.949264     0.134677     0.703744  Biso 1.000000     C
    C   1.0     0.489302     0.199483     0.702929  Biso 1.000000     C
    C   1.0     0.989306     0.199482     0.702932  Biso 1.000000     C
    C   1.0     0.029510     0.207422     0.638946  Biso 1.000000     C
    C   1.0     0.529514     0.207423     0.638941  Biso 1.000000     C
    C   1.0     0.028819     0.151974     0.574780  Biso 1.000000     C
    C   1.0     0.528822     0.151974     0.574776  Biso 1.000000     C
    C   1.0     0.489584     0.086856     0.576554  Biso 1.000000     C
    C   1.0     0.989591     0.086857     0.576555  Biso 1.000000     C
    C   1.0     0.085742     0.643599     0.001790  Biso 1.000000     C
    C   1.0     0.585748     0.643601     0.001788  Biso 1.000000     C
    C   1.0     0.008707     0.770947     0.259729  Biso 1.000000     C
    C   1.0     0.508713     0.770947     0.259729  Biso 1.000000     C
    C   1.0     0.429773     0.504851     0.157185  Biso 1.000000     C
    C   1.0     0.929773     0.504855     0.157187  Biso 1.000000     C
    C   1.0     0.049457     0.641312     0.077154  Biso 1.000000     C
    C   1.0     0.549461     0.641318     0.077151  Biso 1.000000     C
    C   1.0     0.050747     0.703684     0.134668  Biso 1.000000     C
    C   1.0     0.550754     0.703686     0.134669  Biso 1.000000     C
    C   1.0     0.010723     0.702847     0.199493  Biso 1.000000     C
    C   1.0     0.510726     0.702851     0.199489  Biso 1.000000     C
    C   1.0     0.470507     0.638872     0.207405  Biso 1.000000     C
    C   1.0     0.970510     0.638873     0.207405  Biso 1.000000     C
    C   1.0     0.471163     0.574740     0.151913  Biso 1.000000     C
    C   1.0     0.971169     0.574737     0.151917  Biso 1.000000     C
    C   1.0     0.010403     0.576506     0.086808  Biso 1.000000     C
    C   1.0     0.510411     0.576509     0.086807  Biso 1.000000     C
    C   1.0     0.335820     0.356333     0.998190  Biso 1.000000     C
    C   1.0     0.835827     0.356336     0.998188  Biso 1.000000     C
    C   1.0     0.258706     0.228884     0.740301  Biso 1.000000     C
    C   1.0     0.758708     0.228878     0.740306  Biso 1.000000     C
    C   1.0     0.179562     0.495000     0.842639  Biso 1.000000     C
    C   1.0     0.679568     0.494999     0.842638  Biso 1.000000     C
    C   1.0     0.299510     0.358629     0.922784  Biso 1.000000     C
    C   1.0     0.799523     0.358636     0.922776  Biso 1.000000     C
    C   1.0     0.300813     0.296218     0.865308  Biso 1.000000     C
    C   1.0     0.800814     0.296212     0.865313  Biso 1.000000     C
    C   1.0     0.260719     0.297013     0.800493  Biso 1.000000     C
    C   1.0     0.760730     0.297018     0.800486  Biso 1.000000     C
    C   1.0     0.220447     0.361014     0.792514  Biso 1.000000     C
    C   1.0     0.720446     0.361005     0.792521  Biso 1.000000     C
    C   1.0     0.221073     0.425167     0.847981  Biso 1.000000     C
    C   1.0     0.721085     0.425172     0.847972  Biso 1.000000     C
    C   1.0     0.260382     0.423450     0.913080  Biso 1.000000     C
    C   1.0     0.760386     0.423448     0.913080  Biso 1.000000     C
    C   1.0     0.460780     0.501850     0.856401  Biso 1.000000     C
    C   1.0     0.960785     0.501851     0.856402  Biso 1.000000     C
    C   1.0     0.383668     0.759894     0.729058  Biso 1.000000     C
    C   1.0     0.883673     0.759894     0.729057  Biso 1.000000     C
    C   1.0     0.304563     0.657290     0.994958  Biso 1.000000     C
    C   1.0     0.804569     0.657291     0.994959  Biso 1.000000     C
    C   1.0     0.424481     0.577290     0.858749  Biso 1.000000     C
    C   1.0     0.924487     0.577290     0.858750  Biso 1.000000     C
    C   1.0     0.425766     0.634840     0.796413  Biso 1.000000     C
    C   1.0     0.925771     0.634839     0.796412  Biso 1.000000     C
    C   1.0     0.385685     0.699694     0.797195  Biso 1.000000     C
    C   1.0     0.885691     0.699695     0.797195  Biso 1.000000     C
    C   1.0     0.345404     0.707613     0.861104  Biso 1.000000     C
    C   1.0     0.845408     0.707612     0.861103  Biso 1.000000     C
    C   1.0     0.346061     0.652076     0.925204  Biso 1.000000     C
    C   1.0     0.846067     0.652078     0.925205  Biso 1.000000     C
    C   1.0     0.385363     0.586940     0.923490  Biso 1.000000     C
    C   1.0     0.885368     0.586940     0.923490  Biso 1.000000     C
    C   1.0     0.210809     0.498225     0.143583  Biso 1.000000     C
    C   1.0     0.710813     0.498224     0.143581  Biso 1.000000     C
    C   1.0     0.133676     0.240627     0.271288  Biso 1.000000     C
    C   1.0     0.633685     0.240622     0.271280  Biso 1.000000     C
    C   1.0     0.054639     0.342705     0.005064  Biso 1.000000     C
    C   1.0     0.554644     0.342704     0.005059  Biso 1.000000     C
    C   1.0     0.174544     0.422842     0.141318  Biso 1.000000     C
    C   1.0     0.674549     0.422842     0.141314  Biso 1.000000     C
    C   1.0     0.175826     0.365452     0.203806  Biso 1.000000     C
    C   1.0     0.675832     0.365449     0.203800  Biso 1.000000     C
    C   1.0     0.135751     0.300691     0.203069  Biso 1.000000     C
    C   1.0     0.635758     0.300687     0.203062  Biso 1.000000     C
    C   1.0     0.095490     0.292703     0.139098  Biso 1.000000     C
    C   1.0     0.595497     0.292700     0.139091  Biso 1.000000     C
    C   1.0     0.096139     0.348074     0.074869  Biso 1.000000     C
    C   1.0     0.596144     0.348072     0.074864  Biso 1.000000     C
    C   1.0     0.135434     0.413130     0.076518  Biso 1.000000     C
    C   1.0     0.635438     0.413130     0.076514  Biso 1.000000     C
    O   1.0     0.489628     0.819371     0.500179  Biso 1.000000     O
    O   1.0     0.989634     0.819372     0.500179  Biso 1.000000     O
    O   1.0     0.062264     0.892031     0.441099  Biso 1.000000     O
    O   1.0     0.562269     0.892030     0.441099  Biso 1.000000     O
    O   1.0     0.077471     0.672373     0.749878  Biso 1.000000     O
    O   1.0     0.577474     0.672368     0.749874  Biso 1.000000     O
    O   1.0     0.154486     0.730740     0.815016  Biso 1.000000     O
    O   1.0     0.654493     0.730724     0.815010  Biso 1.000000     O
    O   1.0     0.245563     0.983571     0.694183  Biso 1.000000     O
    O   1.0     0.745568     0.983570     0.694183  Biso 1.000000     O
    O   1.0     0.182188     0.061227     0.624526  Biso 1.000000     O
    O   1.0     0.682192     0.061220     0.624521  Biso 1.000000     O
    O   1.0     0.239503     0.180668     0.499859  Biso 1.000000     O
    O   1.0     0.739507     0.180669     0.499858  Biso 1.000000     O
    O   1.0     0.312269     0.107967     0.558915  Biso 1.000000     O
    O   1.0     0.812274     0.107970     0.558916  Biso 1.000000     O
    O   1.0     0.327241     0.328063     0.250400  Biso 1.000000     O
    O   1.0     0.827250     0.328069     0.250402  Biso 1.000000     O
    O   1.0     0.404753     0.270265     0.185986  Biso 1.000000     O
    O   1.0     0.904758     0.270264     0.185984  Biso 1.000000     O
    O   1.0     0.495462     0.016494     0.305713  Biso 1.000000     O
    O   1.0     0.995468     0.016495     0.305716  Biso 1.000000     O
    O   1.0     0.432218     0.938866     0.375369  Biso 1.000000     O
    O   1.0     0.932223     0.938870     0.375374  Biso 1.000000     O
    O   1.0     0.114492     0.999869     0.319309  Biso 1.000000     O
    O   1.0     0.614497     0.999869     0.319310  Biso 1.000000     O
    O   1.0     0.187215     0.058866     0.391989  Biso 1.000000     O
    O   1.0     0.687220     0.058866     0.391989  Biso 1.000000     O
    O   1.0     0.202332     0.750328     0.171956  Biso 1.000000     O
    O   1.0     0.702338     0.750329     0.171954  Biso 1.000000     O
    O   1.0     0.279672     0.685448     0.229855  Biso 1.000000     O
    O   1.0     0.779677     0.685448     0.229855  Biso 1.000000     O
    O   1.0     0.370625     0.805676     0.483429  Biso 1.000000     O
    O   1.0     0.870631     0.805677     0.483428  Biso 1.000000     O
    O   1.0     0.307270     0.875442     0.560889  Biso 1.000000     O
    O   1.0     0.807277     0.875446     0.560887  Biso 1.000000     O
    O   1.0     0.364622     0.000163     0.680653  Biso 1.000000     O
    O   1.0     0.864628     0.000163     0.680652  Biso 1.000000     O
    O   1.0     0.437304     0.941094     0.607956  Biso 1.000000     O
    O   1.0     0.937309     0.941094     0.607955  Biso 1.000000     O
    O   1.0     0.452371     0.249739     0.827891  Biso 1.000000     O
    O   1.0     0.952375     0.249737     0.827895  Biso 1.000000     O
    O   1.0     0.029687     0.314418     0.770045  Biso 1.000000     O
    O   1.0     0.529690     0.314424     0.770037  Biso 1.000000     O
    O   1.0     0.120342     0.194144     0.516153  Biso 1.000000     O
    O   1.0     0.620340     0.194135     0.516129  Biso 1.000000     O
    O   1.0     0.056758     0.124569     0.438824  Biso 1.000000     O
    O   1.0     0.556735     0.124575     0.438813  Biso 1.000000     O
    O   1.0     0.135364     0.680665     0.000163  Biso 1.000000     O
    O   1.0     0.635370     0.680666     0.000162  Biso 1.000000     O
    O   1.0     0.062701     0.607980     0.941069  Biso 1.000000     O
    O   1.0     0.562707     0.607980     0.941067  Biso 1.000000     O
    O   1.0     0.047630     0.827816     0.249765  Biso 1.000000     O
    O   1.0     0.547634     0.827819     0.249763  Biso 1.000000     O
    O   1.0     0.470439     0.769792     0.314590  Biso 1.000000     O
    O   1.0     0.970442     0.769794     0.314588  Biso 1.000000     O
    O   1.0     0.379615     0.516252     0.194119  Biso 1.000000     O
    O   1.0     0.879617     0.516261     0.194123  Biso 1.000000     O
    O   1.0     0.443101     0.438798     0.124496  Biso 1.000000     O
    O   1.0     0.943095     0.438799     0.124497  Biso 1.000000     O
    O   1.0     0.385506     0.319302     0.999851  Biso 1.000000     O
    O   1.0     0.885512     0.319303     0.999852  Biso 1.000000     O
    O   1.0     0.312770     0.391984     0.058882  Biso 1.000000     O
    O   1.0     0.812775     0.391987     0.058879  Biso 1.000000     O
    O   1.0     0.297662     0.171970     0.750337  Biso 1.000000     O
    O   1.0     0.797672     0.171973     0.750334  Biso 1.000000     O
    O   1.0     0.220384     0.229997     0.685438  Biso 1.000000     O
    O   1.0     0.720386     0.229988     0.685442  Biso 1.000000     O
    O   1.0     0.129412     0.483498     0.805714  Biso 1.000000     O
    O   1.0     0.629418     0.483497     0.805710  Biso 1.000000     O
    O   1.0     0.192743     0.561125     0.875302  Biso 1.000000     O
    O   1.0     0.692751     0.561126     0.875295  Biso 1.000000     O
    O   1.0     0.010410     0.500194     0.819346  Biso 1.000000     O
    O   1.0     0.510416     0.500193     0.819347  Biso 1.000000     O
    O   1.0     0.437754     0.441141     0.891992  Biso 1.000000     O
    O   1.0     0.937759     0.441141     0.891991  Biso 1.000000     O
    O   1.0     0.422624     0.749823     0.672233  Biso 1.000000     O
    O   1.0     0.922629     0.749822     0.672232  Biso 1.000000     O
    O   1.0     0.345359     0.814796     0.730117  Biso 1.000000     O
    O   1.0     0.845362     0.814793     0.730114  Biso 1.000000     O
    O   1.0     0.254411     0.694284     0.983498  Biso 1.000000     O
    O   1.0     0.754416     0.694284     0.983498  Biso 1.000000     O
    O   1.0     0.317809     0.624545     0.061045  Biso 1.000000     O
    O   1.0     0.817814     0.624544     0.061045  Biso 1.000000     O
    O   1.0     0.260474     0.499869     0.180639  Biso 1.000000     O
    O   1.0     0.760478     0.499868     0.180638  Biso 1.000000     O
    O   1.0     0.187724     0.558918     0.107922  Biso 1.000000     O
    O   1.0     0.687729     0.558918     0.107920  Biso 1.000000     O
    O   1.0     0.172769     0.250379     0.328026  Biso 1.000000     O
    O   1.0     0.672778     0.250376     0.328017  Biso 1.000000     O
    O   1.0     0.095221     0.186004     0.270322  Biso 1.000000     O
    O   1.0     0.595231     0.185997     0.270316  Biso 1.000000     O
    O   1.0     0.004539     0.305720     0.016529  Biso 1.000000     O
    O   1.0     0.504544     0.305719     0.016526  Biso 1.000000     O
    O   1.0     0.067792     0.375456     0.938979  Biso 1.000000     O
    O   1.0     0.567797     0.375454     0.938973  Biso 1.000000     O
   Zn   1.0     0.420133     0.826410     0.583419  Biso 1.000000    Zn
   Zn   1.0     0.920139     0.826410     0.583419  Biso 1.000000    Zn
   Zn   1.0     0.170094     0.173582     0.416577  Biso 1.000000    Zn
   Zn   1.0     0.670101     0.173582     0.416571  Biso 1.000000    Zn
   Zn   1.0     0.045094     0.916568     0.326401  Biso 1.000000    Zn
   Zn   1.0     0.545099     0.916568     0.326402  Biso 1.000000    Zn
   Zn   1.0     0.295119     0.083413     0.673562  Biso 1.000000    Zn
   Zn   1.0     0.795124     0.083413     0.673562  Biso 1.000000    Zn
   Zn   1.0     0.204884     0.673576     0.083377  Biso 1.000000    Zn
   Zn   1.0     0.704889     0.673576     0.083376  Biso 1.000000    Zn
   Zn   1.0     0.454922     0.326416     0.916589  Biso 1.000000    Zn
   Zn   1.0     0.954927     0.326416     0.916591  Biso 1.000000    Zn
   Zn   1.0     0.079864     0.583482     0.826393  Biso 1.000000    Zn
   Zn   1.0     0.579870     0.583481     0.826393  Biso 1.000000    Zn
   Zn   1.0     0.329913     0.416587     0.173567  Biso 1.000000    Zn
   Zn   1.0     0.829919     0.416589     0.173566  Biso 1.000000    Zn
