#======================================================================

# CRYSTAL DATA

#----------------------------------------------------------------------

data_VESTA_phase_1


_pd_phase_name                         MOF
_cell_length_a                         22.65700
_cell_length_b                         16.49200
_cell_length_c                         16.49500
_cell_angle_alpha                      90.00000
_cell_angle_beta                       90.03300
_cell_angle_gamma                      90.03200
_symmetry_space_group_name_H-M         "P 1"
_symmetry_Int_Tables_number            1

loop_
_symmetry_equiv_pos_as_xyz
   "x, y, z"

loop_
   _atom_site_label
   _atom_site_occupancy
   _atom_site_fract_x
   _atom_site_fract_y
   _atom_site_fract_z
   _atom_site_adp_type
   _atom_site_B_iso_or_equiv
   _atom_site_type_symbol
    H   1.0     0.331398     0.871173     0.245937  Biso 1.000000     H
    H   1.0     0.831387     0.871176     0.245936  Biso 1.000000     H
    H   1.0     0.189189     0.742218     0.360317  Biso 1.000000     H
    H   1.0     0.689179     0.742219     0.360314  Biso 1.000000     H
    H   1.0     0.259803     0.957247     0.472422  Biso 1.000000     H
    H   1.0     0.759791     0.957248     0.472421  Biso 1.000000     H
    H   1.0     0.081509     0.128474     0.754291  Biso 1.000000     H
    H   1.0     0.581499     0.128473     0.754290  Biso 1.000000     H
    H   1.0     0.439247     0.257434     0.640046  Biso 1.000000     H
    H   1.0     0.939238     0.257434     0.640046  Biso 1.000000     H
    H   1.0     0.009852     0.042766     0.527536  Biso 1.000000     H
    H   1.0     0.509841     0.042766     0.527536  Biso 1.000000     H
    H   1.0     0.206454     0.254240     0.371301  Biso 1.000000     H
    H   1.0     0.706444     0.254238     0.371300  Biso 1.000000     H
    H   1.0     0.064195     0.139752     0.242337  Biso 1.000000     H
    H   1.0     0.564186     0.139749     0.242337  Biso 1.000000     H
    H   1.0     0.134784     0.027604     0.457281  Biso 1.000000     H
    H   1.0     0.634774     0.027603     0.457281  Biso 1.000000     H
    H   1.0     0.456391     0.745748     0.628562  Biso 1.000000     H
    H   1.0     0.956382     0.745748     0.628562  Biso 1.000000     H
    H   1.0     0.314354     0.860202     0.757591  Biso 1.000000     H
    H   1.0     0.814345     0.860202     0.757591  Biso 1.000000     H
    H   1.0     0.384852     0.972411     0.542676  Biso 1.000000     H
    H   1.0     0.884842     0.972411     0.542676  Biso 1.000000     H
    H   1.0     0.043506     0.628573     0.745688  Biso 1.000000     H
    H   1.0     0.543496     0.628577     0.745688  Biso 1.000000     H
    H   1.0     0.185830     0.757589     0.859963  Biso 1.000000     H
    H   1.0     0.685820     0.757590     0.859966  Biso 1.000000     H
    H   1.0     0.115168     0.542801     0.972372  Biso 1.000000     H
    H   1.0     0.615155     0.542802     0.972373  Biso 1.000000     H
    H   1.0     0.293640     0.371248     0.254299  Biso 1.000000     H
    H   1.0     0.793630     0.371247     0.254298  Biso 1.000000     H
    H   1.0     0.435660     0.242327     0.139668  Biso 1.000000     H
    H   1.0     0.935651     0.242327     0.139668  Biso 1.000000     H
    H   1.0     0.365026     0.457266     0.027643  Biso 1.000000     H
    H   1.0     0.865016     0.457266     0.027642  Biso 1.000000     H
    H   1.0     0.168492     0.245647     0.871567  Biso 1.000000     H
    H   1.0     0.668482     0.245648     0.871564  Biso 1.000000     H
    H   1.0     0.310635     0.360058     0.742531  Biso 1.000000     H
    H   1.0     0.810625     0.360061     0.742529  Biso 1.000000     H
    H   1.0     0.240140     0.472434     0.957292  Biso 1.000000     H
    H   1.0     0.740129     0.472436     0.957291  Biso 1.000000     H
    H   1.0     0.418551     0.754000     0.128820  Biso 1.000000     H
    H   1.0     0.918542     0.754002     0.128816  Biso 1.000000     H
    H   1.0     0.060777     0.639589     0.257720  Biso 1.000000     H
    H   1.0     0.560766     0.639582     0.257721  Biso 1.000000     H
    H   1.0     0.490208     0.527542     0.042647  Biso 1.000000     H
    H   1.0     0.990202     0.527544     0.042646  Biso 1.000000     H
   Li   1.0     0.064086     0.825464     0.402146  Biso 1.000000    Li
   Li   1.0     0.564076     0.825461     0.402146  Biso 1.000000    Li
   Li   1.0     0.314145     0.174568     0.598074  Biso 1.000000    Li
   Li   1.0     0.814135     0.174568     0.598073  Biso 1.000000    Li
   Li   1.0     0.439097     0.097918     0.325616  Biso 1.000000    Li
   Li   1.0     0.939087     0.097918     0.325617  Biso 1.000000    Li
   Li   1.0     0.189219     0.902048     0.674459  Biso 1.000000    Li
   Li   1.0     0.689210     0.902048     0.674458  Biso 1.000000    Li
   Li   1.0     0.310935     0.674486     0.902040  Biso 1.000000    Li
   Li   1.0     0.810925     0.674486     0.902041  Biso 1.000000    Li
   Li   1.0     0.060655     0.325430     0.097787  Biso 1.000000    Li
   Li   1.0     0.560644     0.325427     0.097785  Biso 1.000000    Li
   Li   1.0     0.435691     0.401863     0.825373  Biso 1.000000    Li
   Li   1.0     0.935682     0.401864     0.825374  Biso 1.000000    Li
   Li   1.0     0.185876     0.597845     0.174310  Biso 1.000000    Li
   Li   1.0     0.685866     0.597846     0.174311  Biso 1.000000    Li
    C   1.0     0.335778     0.998139     0.356455  Biso 1.000000     C
    C   1.0     0.835768     0.998140     0.356456  Biso 1.000000     C
    C   1.0     0.258668     0.740149     0.229022  Biso 1.000000     C
    C   1.0     0.758659     0.740150     0.229020  Biso 1.000000     C
    C   1.0     0.179595     0.842674     0.495003  Biso 1.000000     C
    C   1.0     0.679586     0.842673     0.495002  Biso 1.000000     C
    C   1.0     0.299501     0.922693     0.358807  Biso 1.000000     C
    C   1.0     0.799493     0.922692     0.358803  Biso 1.000000     C
    C   1.0     0.300776     0.865167     0.296436  Biso 1.000000     C
    C   1.0     0.800765     0.865163     0.296434  Biso 1.000000     C
    C   1.0     0.260721     0.800302     0.297207  Biso 1.000000     C
    C   1.0     0.760707     0.800303     0.297206  Biso 1.000000     C
    C   1.0     0.220457     0.792367     0.361131  Biso 1.000000     C
    C   1.0     0.720446     0.792368     0.361135  Biso 1.000000     C
    C   1.0     0.221110     0.847878     0.425263  Biso 1.000000     C
    C   1.0     0.721102     0.847882     0.425264  Biso 1.000000     C
    C   1.0     0.260408     0.913001     0.423571  Biso 1.000000     C
    C   1.0     0.760401     0.913004     0.423569  Biso 1.000000     C
    C   1.0     0.085835     0.001766     0.643549  Biso 1.000000     C
    C   1.0     0.585825     0.001766     0.643548  Biso 1.000000     C
    C   1.0     0.008755     0.259408     0.771265  Biso 1.000000     C
    C   1.0     0.508746     0.259408     0.771264  Biso 1.000000     C
    C   1.0     0.429598     0.157271     0.505126  Biso 1.000000     C
    C   1.0     0.929589     0.157270     0.505126  Biso 1.000000     C
    C   1.0     0.049586     0.077174     0.641286  Biso 1.000000     C
    C   1.0     0.549577     0.077175     0.641286  Biso 1.000000     C
    C   1.0     0.050862     0.134560     0.703784  Biso 1.000000     C
    C   1.0     0.550852     0.134561     0.703784  Biso 1.000000     C
    C   1.0     0.010774     0.199316     0.703070  Biso 1.000000     C
    C   1.0     0.510764     0.199317     0.703069  Biso 1.000000     C
    C   1.0     0.470499     0.207321     0.639108  Biso 1.000000     C
    C   1.0     0.970489     0.207321     0.639111  Biso 1.000000     C
    C   1.0     0.471161     0.151957     0.574864  Biso 1.000000     C
    C   1.0     0.971150     0.151958     0.574865  Biso 1.000000     C
    C   1.0     0.010469     0.086895     0.576494  Biso 1.000000     C
    C   1.0     0.510461     0.086894     0.576495  Biso 1.000000     C
    C   1.0     0.210817     0.143597     0.498183  Biso 1.000000     C
    C   1.0     0.710807     0.143597     0.498183  Biso 1.000000     C
    C   1.0     0.133693     0.271069     0.240250  Biso 1.000000     C
    C   1.0     0.633684     0.271066     0.240248  Biso 1.000000     C
    C   1.0     0.054565     0.004989     0.342680  Biso 1.000000     C
    C   1.0     0.554555     0.004987     0.342680  Biso 1.000000     C
    C   1.0     0.174518     0.141307     0.422761  Biso 1.000000     C
    C   1.0     0.674508     0.141305     0.422761  Biso 1.000000     C
    C   1.0     0.175805     0.203713     0.365265  Biso 1.000000     C
    C   1.0     0.675795     0.203711     0.365264  Biso 1.000000     C
    C   1.0     0.135731     0.202905     0.300426  Biso 1.000000     C
    C   1.0     0.635721     0.202903     0.300425  Biso 1.000000     C
    C   1.0     0.095456     0.138926     0.292481  Biso 1.000000     C
    C   1.0     0.595447     0.138923     0.292481  Biso 1.000000     C
    C   1.0     0.096108     0.074766     0.347958  Biso 1.000000     C
    C   1.0     0.596099     0.074763     0.347958  Biso 1.000000     C
    C   1.0     0.135408     0.076484     0.413064  Biso 1.000000     C
    C   1.0     0.635399     0.076482     0.413064  Biso 1.000000     C
    C   1.0     0.460766     0.856422     0.501781  Biso 1.000000     C
    C   1.0     0.960757     0.856422     0.501781  Biso 1.000000     C
    C   1.0     0.383736     0.728880     0.759624  Biso 1.000000     C
    C   1.0     0.883727     0.728881     0.759625  Biso 1.000000     C
    C   1.0     0.304712     0.995020     0.657262  Biso 1.000000     C
    C   1.0     0.804703     0.995020     0.657263  Biso 1.000000     C
    C   1.0     0.424525     0.858710     0.577187  Biso 1.000000     C
    C   1.0     0.924516     0.858710     0.577187  Biso 1.000000     C
    C   1.0     0.425790     0.796270     0.634640  Biso 1.000000     C
    C   1.0     0.925780     0.796270     0.634639  Biso 1.000000     C
    C   1.0     0.385767     0.797055     0.699464  Biso 1.000000     C
    C   1.0     0.885758     0.797056     0.699464  Biso 1.000000     C
    C   1.0     0.345562     0.861053     0.707433  Biso 1.000000     C
    C   1.0     0.845552     0.861053     0.707433  Biso 1.000000     C
    C   1.0     0.346208     0.925234     0.651978  Biso 1.000000     C
    C   1.0     0.846198     0.925234     0.651978  Biso 1.000000     C
    C   1.0     0.385462     0.923516     0.586876  Biso 1.000000     C
    C   1.0     0.885452     0.923516     0.586876  Biso 1.000000     C
    C   1.0     0.039125     0.501804     0.856413  Biso 1.000000     C
    C   1.0     0.539115     0.501805     0.856410  Biso 1.000000     C
    C   1.0     0.116300     0.759576     0.728739  Biso 1.000000     C
    C   1.0     0.616291     0.759578     0.728740  Biso 1.000000     C
    C   1.0     0.195446     0.657308     0.994837  Biso 1.000000     C
    C   1.0     0.695436     0.657306     0.994838  Biso 1.000000     C
    C   1.0     0.075422     0.577232     0.858654  Biso 1.000000     C
    C   1.0     0.575415     0.577230     0.858658  Biso 1.000000     C
    C   1.0     0.074162     0.634657     0.796190  Biso 1.000000     C
    C   1.0     0.574152     0.634653     0.796192  Biso 1.000000     C
    C   1.0     0.114273     0.699455     0.796926  Biso 1.000000     C
    C   1.0     0.614258     0.699455     0.796926  Biso 1.000000     C
    C   1.0     0.154557     0.707451     0.860880  Biso 1.000000     C
    C   1.0     0.654547     0.707452     0.860875  Biso 1.000000     C
    C   1.0     0.153887     0.652037     0.925086  Biso 1.000000     C
    C   1.0     0.653879     0.652042     0.925084  Biso 1.000000     C
    C   1.0     0.114554     0.586950     0.923435  Biso 1.000000     C
    C   1.0     0.614548     0.586953     0.923438  Biso 1.000000     C
    C   1.0     0.289214     0.498195     0.143648  Biso 1.000000     C
    C   1.0     0.789204     0.498195     0.143648  Biso 1.000000     C
    C   1.0     0.366332     0.240289     0.271090  Biso 1.000000     C
    C   1.0     0.866322     0.240289     0.271090  Biso 1.000000     C
    C   1.0     0.444889     0.342722     0.004577  Biso 1.000000     C
    C   1.0     0.944883     0.342723     0.004582  Biso 1.000000     C
    C   1.0     0.325471     0.422789     0.141384  Biso 1.000000     C
    C   1.0     0.825463     0.422789     0.141381  Biso 1.000000     C
    C   1.0     0.324233     0.365273     0.203767  Biso 1.000000     C
    C   1.0     0.824223     0.365276     0.203767  Biso 1.000000     C
    C   1.0     0.364272     0.300453     0.202923  Biso 1.000000     C
    C   1.0     0.864260     0.300453     0.202924  Biso 1.000000     C
    C   1.0     0.404448     0.292496     0.138887  Biso 1.000000     C
    C   1.0     0.904439     0.292496     0.138891  Biso 1.000000     C
    C   1.0     0.403708     0.347948     0.074716  Biso 1.000000     C
    C   1.0     0.903700     0.347946     0.074718  Biso 1.000000     C
    C   1.0     0.364468     0.413072     0.076538  Biso 1.000000     C
    C   1.0     0.864461     0.413071     0.076536  Biso 1.000000     C
    C   1.0     0.164142     0.356416     0.998244  Biso 1.000000     C
    C   1.0     0.664132     0.356415     0.998243  Biso 1.000000     C
    C   1.0     0.241231     0.228711     0.740574  Biso 1.000000     C
    C   1.0     0.741221     0.228713     0.740572  Biso 1.000000     C
    C   1.0     0.320332     0.494937     0.842715  Biso 1.000000     C
    C   1.0     0.820322     0.494938     0.842716  Biso 1.000000     C
    C   1.0     0.200391     0.358678     0.922844  Biso 1.000000     C
    C   1.0     0.700383     0.358681     0.922845  Biso 1.000000     C
    C   1.0     0.199120     0.296180     0.865450  Biso 1.000000     C
    C   1.0     0.699110     0.296182     0.865453  Biso 1.000000     C
    C   1.0     0.239179     0.296929     0.800668  Biso 1.000000     C
    C   1.0     0.739167     0.296929     0.800668  Biso 1.000000     C
    C   1.0     0.279410     0.360947     0.792665  Biso 1.000000     C
    C   1.0     0.779400     0.360945     0.792664  Biso 1.000000     C
    C   1.0     0.278774     0.425174     0.848058  Biso 1.000000     C
    C   1.0     0.778765     0.425173     0.848055  Biso 1.000000     C
    C   1.0     0.239500     0.423497     0.913137  Biso 1.000000     C
    C   1.0     0.739492     0.423499     0.913135  Biso 1.000000     C
    C   1.0     0.414201     0.643524     0.001832  Biso 1.000000     C
    C   1.0     0.914192     0.643524     0.001831  Biso 1.000000     C
    C   1.0     0.491259     0.770796     0.259904  Biso 1.000000     C
    C   1.0     0.991250     0.770802     0.259899  Biso 1.000000     C
    C   1.0     0.070399     0.504923     0.157274  Biso 1.000000     C
    C   1.0     0.570389     0.504919     0.157273  Biso 1.000000     C
    C   1.0     0.450488     0.641157     0.077251  Biso 1.000000     C
    C   1.0     0.950477     0.641162     0.077253  Biso 1.000000     C
    C   1.0     0.449184     0.703501     0.134808  Biso 1.000000     C
    C   1.0     0.949175     0.703504     0.134811  Biso 1.000000     C
    C   1.0     0.489226     0.702682     0.199672  Biso 1.000000     C
    C   1.0     0.989221     0.702685     0.199671  Biso 1.000000     C
    C   1.0     0.029520     0.638768     0.207570  Biso 1.000000     C
    C   1.0     0.529509     0.638768     0.207570  Biso 1.000000     C
    C   1.0     0.028879     0.574661     0.152030  Biso 1.000000     C
    C   1.0     0.528871     0.574659     0.152033  Biso 1.000000     C
    C   1.0     0.489585     0.576377     0.086911  Biso 1.000000     C
    C   1.0     0.989573     0.576381     0.086909  Biso 1.000000     C
    O   1.0     0.385394     0.999807     0.319373  Biso 1.000000     O
    O   1.0     0.885384     0.999807     0.319374  Biso 1.000000     O
    O   1.0     0.312734     0.058838     0.392047  Biso 1.000000     O
    O   1.0     0.812724     0.058839     0.392049  Biso 1.000000     O
    O   1.0     0.297618     0.750206     0.172190  Biso 1.000000     O
    O   1.0     0.797609     0.750205     0.172189  Biso 1.000000     O
    O   1.0     0.220354     0.685276     0.230063  Biso 1.000000     O
    O   1.0     0.720346     0.685276     0.230063  Biso 1.000000     O
    O   1.0     0.129456     0.805702     0.483505  Biso 1.000000     O
    O   1.0     0.629447     0.805701     0.483506  Biso 1.000000     O
    O   1.0     0.192812     0.875411     0.561093  Biso 1.000000     O
    O   1.0     0.692803     0.875409     0.561092  Biso 1.000000     O
    O   1.0     0.135476     0.000105     0.680636  Biso 1.000000     O
    O   1.0     0.635467     0.000105     0.680636  Biso 1.000000     O
    O   1.0     0.062726     0.941082     0.607909  Biso 1.000000     O
    O   1.0     0.562717     0.941082     0.607909  Biso 1.000000     O
    O   1.0     0.047816     0.249576     0.828027  Biso 1.000000     O
    O   1.0     0.547808     0.249577     0.828025  Biso 1.000000     O
    O   1.0     0.470324     0.314082     0.770315  Biso 1.000000     O
    O   1.0     0.970313     0.314081     0.770316  Biso 1.000000     O
    O   1.0     0.379513     0.194287     0.516590  Biso 1.000000     O
    O   1.0     0.879503     0.194287     0.516591  Biso 1.000000     O
    O   1.0     0.442756     0.124597     0.439009  Biso 1.000000     O
    O   1.0     0.942746     0.124596     0.439010  Biso 1.000000     O
    O   1.0     0.260468     0.180671     0.499856  Biso 1.000000     O
    O   1.0     0.760458     0.180671     0.499856  Biso 1.000000     O
    O   1.0     0.187749     0.107978     0.558871  Biso 1.000000     O
    O   1.0     0.687739     0.107977     0.558871  Biso 1.000000     O
    O   1.0     0.172644     0.327965     0.250300  Biso 1.000000     O
    O   1.0     0.672635     0.327963     0.250298  Biso 1.000000     O
    O   1.0     0.095422     0.269947     0.185321  Biso 1.000000     O
    O   1.0     0.595413     0.269943     0.185319  Biso 1.000000     O
    O   1.0     0.004434     0.016495     0.305719  Biso 1.000000     O
    O   1.0     0.504424     0.016493     0.305720  Biso 1.000000     O
    O   1.0     0.067757     0.938842     0.375297  Biso 1.000000     O
    O   1.0     0.567748     0.938839     0.375295  Biso 1.000000     O
    O   1.0     0.010393     0.819347     0.500150  Biso 1.000000     O
    O   1.0     0.510383     0.819347     0.500151  Biso 1.000000     O
    O   1.0     0.437703     0.892068     0.441095  Biso 1.000000     O
    O   1.0     0.937694     0.892067     0.441095  Biso 1.000000     O
    O   1.0     0.422663     0.672006     0.749671  Biso 1.000000     O
    O   1.0     0.922654     0.672006     0.749671  Biso 1.000000     O
    O   1.0     0.345437     0.729972     0.814450  Biso 1.000000     O
    O   1.0     0.845428     0.729973     0.814451  Biso 1.000000     O
    O   1.0     0.254587     0.983527     0.694210  Biso 1.000000     O
    O   1.0     0.754578     0.983527     0.694210  Biso 1.000000     O
    O   1.0     0.317934     0.061124     0.624573  Biso 1.000000     O
    O   1.0     0.817924     0.061124     0.624573  Biso 1.000000     O
    O   1.0     0.489469     0.500105     0.819344  Biso 1.000000     O
    O   1.0     0.989460     0.500105     0.819345  Biso 1.000000     O
    O   1.0     0.062196     0.441127     0.892061  Biso 1.000000     O
    O   1.0     0.562186     0.441128     0.892059  Biso 1.000000     O
    O   1.0     0.077313     0.749603     0.671888  Biso 1.000000     O
    O   1.0     0.577305     0.749602     0.671889  Biso 1.000000     O
    O   1.0     0.154651     0.814403     0.729800  Biso 1.000000     O
    O   1.0     0.654644     0.814402     0.729798  Biso 1.000000     O
    O   1.0     0.245570     0.694313     0.983413  Biso 1.000000     O
    O   1.0     0.745560     0.694312     0.983413  Biso 1.000000     O
    O   1.0     0.182244     0.624603     0.060922  Biso 1.000000     O
    O   1.0     0.682235     0.624600     0.060922  Biso 1.000000     O
    O   1.0     0.239579     0.499838     0.180672  Biso 1.000000     O
    O   1.0     0.739569     0.499838     0.180672  Biso 1.000000     O
    O   1.0     0.312272     0.558883     0.107980  Biso 1.000000     O
    O   1.0     0.812263     0.558882     0.107981  Biso 1.000000     O
    O   1.0     0.327381     0.250252     0.327928  Biso 1.000000     O
    O   1.0     0.827371     0.250253     0.327929  Biso 1.000000     O
    O   1.0     0.404646     0.185473     0.270026  Biso 1.000000     O
    O   1.0     0.904637     0.185475     0.270028  Biso 1.000000     O
    O   1.0     0.495178     0.306031     0.015730  Biso 1.000000     O
    O   1.0     0.995170     0.306029     0.015739  Biso 1.000000     O
    O   1.0     0.431132     0.375227     0.938632  Biso 1.000000     O
    O   1.0     0.931133     0.375231     0.938635  Biso 1.000000     O
    O   1.0     0.114480     0.319353     0.999873  Biso 1.000000     O
    O   1.0     0.614469     0.319352     0.999873  Biso 1.000000     O
    O   1.0     0.187236     0.392056     0.058914  Biso 1.000000     O
    O   1.0     0.687227     0.392055     0.058913  Biso 1.000000     O
    O   1.0     0.202270     0.171814     0.750463  Biso 1.000000     O
    O   1.0     0.702261     0.171814     0.750463  Biso 1.000000     O
    O   1.0     0.279590     0.229789     0.685822  Biso 1.000000     O
    O   1.0     0.779581     0.229788     0.685822  Biso 1.000000     O
    O   1.0     0.370406     0.483463     0.805677  Biso 1.000000     O
    O   1.0     0.870396     0.483462     0.805678  Biso 1.000000     O
    O   1.0     0.307196     0.561058     0.875416  Biso 1.000000     O
    O   1.0     0.807187     0.561058     0.875418  Biso 1.000000     O
    O   1.0     0.364590     0.680627     0.000173  Biso 1.000000     O
    O   1.0     0.864581     0.680626     0.000174  Biso 1.000000     O
    O   1.0     0.437256     0.607949     0.941131  Biso 1.000000     O
    O   1.0     0.937247     0.607948     0.941131  Biso 1.000000     O
    O   1.0     0.452371     0.827713     0.249829  Biso 1.000000     O
    O   1.0     0.952359     0.827716     0.249828  Biso 1.000000     O
    O   1.0     0.029494     0.769580     0.314877  Biso 1.000000     O
    O   1.0     0.529484     0.769571     0.314881  Biso 1.000000     O
    O   1.0     0.120536     0.516467     0.194235  Biso 1.000000     O
    O   1.0     0.620526     0.516465     0.194233  Biso 1.000000     O
    O   1.0     0.057186     0.438779     0.124621  Biso 1.000000     O
    O   1.0     0.557177     0.438776     0.124619  Biso 1.000000     O
   Zn   1.0     0.454859     0.916540     0.326407  Biso 1.000000    Zn
   Zn   1.0     0.954849     0.916542     0.326408  Biso 1.000000    Zn
   Zn   1.0     0.204927     0.083346     0.673558  Biso 1.000000    Zn
   Zn   1.0     0.704918     0.083346     0.673558  Biso 1.000000    Zn
   Zn   1.0     0.329908     0.173565     0.416623  Biso 1.000000    Zn
   Zn   1.0     0.829899     0.173566     0.416624  Biso 1.000000    Zn
   Zn   1.0     0.079894     0.826424     0.583360  Biso 1.000000    Zn
   Zn   1.0     0.579884     0.826423     0.583361  Biso 1.000000    Zn
   Zn   1.0     0.420062     0.583374     0.826435  Biso 1.000000    Zn
   Zn   1.0     0.920053     0.583373     0.826435  Biso 1.000000    Zn
   Zn   1.0     0.170098     0.416591     0.173577  Biso 1.000000    Zn
   Zn   1.0     0.670088     0.416591     0.173576  Biso 1.000000    Zn
   Zn   1.0     0.045130     0.326413     0.916525  Biso 1.000000    Zn
   Zn   1.0     0.545121     0.326414     0.916522  Biso 1.000000    Zn
   Zn   1.0     0.295104     0.673579     0.083406  Biso 1.000000    Zn
   Zn   1.0     0.795095     0.673578     0.083405  Biso 1.000000    Zn
