#======================================================================

# CRYSTAL DATA

#----------------------------------------------------------------------

data_VESTA_phase_1


_pd_phase_name                         MOF
_cell_length_a                         13.12800
_cell_length_b                         13.96900
_cell_length_c                         16.99000
_cell_angle_alpha                      90.00000
_cell_angle_beta                       90.04600
_cell_angle_gamma                      90.11900
_symmetry_space_group_name_H-M         "P 1"
_symmetry_Int_Tables_number            1

loop_
_symmetry_equiv_pos_as_xyz
   "x, y, z"

loop_
   _atom_site_label
   _atom_site_occupancy
   _atom_site_fract_x
   _atom_site_fract_y
   _atom_site_fract_z
   _atom_site_adp_type
   _atom_site_B_iso_or_equiv
   _atom_site_type_symbol
    H   1.0     0.259954     0.859745     0.507873  Biso 1.000000     H
    H   1.0     0.441029     0.198901     0.348282  Biso 1.000000     H
    H   1.0     0.152119     0.150374     0.335560  Biso 1.000000     H
    H   1.0     0.274767     0.110701     0.318038  Biso 1.000000     H
    H   1.0     0.559709     0.229875     0.638670  Biso 1.000000     H
    H   1.0     0.564971     0.338832     0.591069  Biso 1.000000     H
    H   1.0     0.739951     0.640271     0.007761  Biso 1.000000     H
    H   1.0     0.558693     0.301161     0.848315  Biso 1.000000     H
    H   1.0     0.847764     0.349760     0.835433  Biso 1.000000     H
    H   1.0     0.725003     0.389264     0.817931  Biso 1.000000     H
    H   1.0     0.440239     0.270147     0.138621  Biso 1.000000     H
    H   1.0     0.434941     0.161204     0.091000  Biso 1.000000     H
    H   1.0     0.761340     0.139114     0.994146  Biso 1.000000     H
    H   1.0     0.944555     0.799919     0.152651  Biso 1.000000     H
    H   1.0     0.651627     0.848824     0.166336  Biso 1.000000     H
    H   1.0     0.775062     0.887332     0.182774  Biso 1.000000     H
    H   1.0     0.059985     0.771778     0.861475  Biso 1.000000     H
    H   1.0     0.066148     0.662397     0.908159  Biso 1.000000     H
    H   1.0     0.238437     0.361026     0.494027  Biso 1.000000     H
    H   1.0     0.055001     0.700196     0.652879  Biso 1.000000     H
    H   1.0     0.348508     0.651296     0.666185  Biso 1.000000     H
    H   1.0     0.225155     0.612740     0.682639  Biso 1.000000     H
    H   1.0     0.940262     0.728313     0.361222  Biso 1.000000     H
    H   1.0     0.934791     0.838006     0.407839  Biso 1.000000     H
    H   1.0     0.739924     0.140348     0.493028  Biso 1.000000     H
    H   1.0     0.558142     0.801301     0.651965  Biso 1.000000     H
    H   1.0     0.847015     0.849822     0.665586  Biso 1.000000     H
    H   1.0     0.724093     0.888989     0.682336  Biso 1.000000     H
    H   1.0     0.440333     0.770103     0.361379  Biso 1.000000     H
    H   1.0     0.434970     0.661183     0.409068  Biso 1.000000     H
    H   1.0     0.259935     0.360044     0.993095  Biso 1.000000     H
    H   1.0     0.441954     0.698699     0.151926  Biso 1.000000     H
    H   1.0     0.152666     0.650396     0.165768  Biso 1.000000     H
    H   1.0     0.275621     0.611177     0.182792  Biso 1.000000     H
    H   1.0     0.559650     0.729865     0.861422  Biso 1.000000     H
    H   1.0     0.565041     0.838794     0.909105  Biso 1.000000     H
    H   1.0     0.239374     0.860535     0.006864  Biso 1.000000     H
    H   1.0     0.055077     0.199194     0.849971  Biso 1.000000     H
    H   1.0     0.347634     0.151047     0.834368  Biso 1.000000     H
    H   1.0     0.224011     0.112663     0.818421  Biso 1.000000     H
    H   1.0     0.939859     0.228039     0.141171  Biso 1.000000     H
    H   1.0     0.933504     0.337177     0.094066  Biso 1.000000     H
    H   1.0     0.760414     0.639598     0.506968  Biso 1.000000     H
    H   1.0     0.944675     0.300925     0.349973  Biso 1.000000     H
    H   1.0     0.652237     0.349023     0.334396  Biso 1.000000     H
    H   1.0     0.775873     0.387417     0.318649  Biso 1.000000     H
    H   1.0     0.059992     0.272039     0.641265  Biso 1.000000     H
    H   1.0     0.066292     0.162969     0.594035  Biso 1.000000     H
    C   1.0     0.421937     0.013256     0.220279  Biso 1.000000     C
    C   1.0     0.466641     0.915080     0.244066  Biso 1.000000     C
    C   1.0     0.201321     0.046267     0.408295  Biso 1.000000     C
    C   1.0     0.224816     0.921385     0.480192  Biso 1.000000     C
    C   1.0     0.528969     0.220357     0.523037  Biso 1.000000     C
    C   1.0     0.469512     0.190546     0.407637  Biso 1.000000     C
    C   1.0     0.577963     0.486736     0.720279  Biso 1.000000     C
    C   1.0     0.533305     0.584894     0.744046  Biso 1.000000     C
    C   1.0     0.798586     0.453833     0.908145  Biso 1.000000     C
    C   1.0     0.775102     0.578677     0.980038  Biso 1.000000     C
    C   1.0     0.470847     0.279691     0.023005  Biso 1.000000     C
    C   1.0     0.530231     0.309510     0.907643  Biso 1.000000     C
    C   1.0     0.923511     0.984926     0.280684  Biso 1.000000     C
    C   1.0     0.967025     0.084176     0.258355  Biso 1.000000     C
    C   1.0     0.701201     0.952603     0.093295  Biso 1.000000     C
    C   1.0     0.725653     0.077601     0.021762  Biso 1.000000     C
    C   1.0     0.030477     0.780094     0.977262  Biso 1.000000     C
    C   1.0     0.972356     0.808825     0.093175  Biso 1.000000     C
    C   1.0     0.076653     0.515090     0.780691  Biso 1.000000     C
    C   1.0     0.033029     0.415905     0.758298  Biso 1.000000     C
    C   1.0     0.298805     0.547524     0.593139  Biso 1.000000     C
    C   1.0     0.274193     0.422541     0.521621  Biso 1.000000     C
    C   1.0     0.970169     0.720179     0.477069  Biso 1.000000     C
    C   1.0     0.027558     0.691361     0.593256  Biso 1.000000     C
    C   1.0     0.577823     0.986746     0.779878  Biso 1.000000     C
    C   1.0     0.533191     0.084934     0.756052  Biso 1.000000     C
    C   1.0     0.798137     0.953632     0.592565  Biso 1.000000     C
    C   1.0     0.774941     0.078697     0.520784  Biso 1.000000     C
    C   1.0     0.470753     0.779733     0.477066  Biso 1.000000     C
    C   1.0     0.529820     0.809625     0.592562  Biso 1.000000     C
    C   1.0     0.422150     0.513223     0.279849  Biso 1.000000     C
    C   1.0     0.466791     0.415072     0.256051  Biso 1.000000     C
    C   1.0     0.201621     0.546460     0.092875  Biso 1.000000     C
    C   1.0     0.224875     0.421598     0.020946  Biso 1.000000     C
    C   1.0     0.529239     0.720251     0.977080  Biso 1.000000     C
    C   1.0     0.470229     0.690371     0.092544  Biso 1.000000     C
    C   1.0     0.075764     0.015702     0.720788  Biso 1.000000     C
    C   1.0     0.031717     0.916769     0.744121  Biso 1.000000     C
    C   1.0     0.298580     0.047192     0.907514  Biso 1.000000     C
    C   1.0     0.274779     0.922087     0.979085  Biso 1.000000     C
    C   1.0     0.969373     0.219187     0.025422  Biso 1.000000     C
    C   1.0     0.027456     0.190368     0.909506  Biso 1.000000     C
    C   1.0     0.923472     0.483662     0.220408  Biso 1.000000     C
    C   1.0     0.965511     0.583273     0.243886  Biso 1.000000     C
    C   1.0     0.701214     0.452871     0.407655  Biso 1.000000     C
    C   1.0     0.725009     0.578001     0.479220  Biso 1.000000     C
    C   1.0     0.030478     0.281003     0.525480  Biso 1.000000     C
    C   1.0     0.972314     0.309764     0.409536  Biso 1.000000     C
    N   1.0     0.273374     0.979607     0.427982  Biso 1.000000     N
    N   1.0     0.129571     0.948383     0.492965  Biso 1.000000     N
    N   1.0     0.113774     0.029585     0.447202  Biso 1.000000     N
    N   1.0     0.217102     0.120989     0.358263  Biso 1.000000     N
    N   1.0     0.523223     0.123935     0.516246  Biso 1.000000     N
    N   1.0     0.484277     0.105956     0.441208  Biso 1.000000     N
    N   1.0     0.495602     0.264179     0.455743  Biso 1.000000     N
    N   1.0     0.568987     0.265826     0.586627  Biso 1.000000     N
    N   1.0     0.726489     0.520371     0.927871  Biso 1.000000     N
    N   1.0     0.870427     0.551820     0.992748  Biso 1.000000     N
    N   1.0     0.886217     0.470656     0.946996  Biso 1.000000     N
    N   1.0     0.782793     0.379069     0.858142  Biso 1.000000     N
    N   1.0     0.476525     0.376122     0.016215  Biso 1.000000     N
    N   1.0     0.515446     0.394102     0.941191  Biso 1.000000     N
    N   1.0     0.504176     0.235870     0.955717  Biso 1.000000     N
    N   1.0     0.430906     0.234210     0.086567  Biso 1.000000     N
    N   1.0     0.773927     0.018885     0.073678  Biso 1.000000     N
    N   1.0     0.629949     0.051346     0.009130  Biso 1.000000     N
    N   1.0     0.613490     0.969955     0.054713  Biso 1.000000     N
    N   1.0     0.716710     0.877460     0.142985  Biso 1.000000     N
    N   1.0     0.023935     0.876408     0.984341  Biso 1.000000     N
    N   1.0     0.985936     0.893664     0.059729  Biso 1.000000     N
    N   1.0     0.998444     0.735660     0.044718  Biso 1.000000     N
    N   1.0     0.069976     0.735434     0.913245  Biso 1.000000     N
    N   1.0     0.226027     0.481289     0.573517  Biso 1.000000     N
    N   1.0     0.369889     0.448762     0.509008  Biso 1.000000     N
    N   1.0     0.386443     0.530134     0.554586  Biso 1.000000     N
    N   1.0     0.283371     0.622682     0.642817  Biso 1.000000     N
    N   1.0     0.976454     0.623819     0.484193  Biso 1.000000     N
    N   1.0     0.013970     0.606545     0.559769  Biso 1.000000     N
    N   1.0     0.001949     0.764551     0.544664  Biso 1.000000     N
    N   1.0     0.931219     0.764970     0.412944  Biso 1.000000     N
    N   1.0     0.726124     0.020239     0.572617  Biso 1.000000     N
    N   1.0     0.870339     0.051871     0.508492  Biso 1.000000     N
    N   1.0     0.885974     0.970580     0.554147  Biso 1.000000     N
    N   1.0     0.782079     0.878740     0.642365  Biso 1.000000     N
    N   1.0     0.476495     0.876157     0.483809  Biso 1.000000     N
    N   1.0     0.515168     0.894191     0.558919  Biso 1.000000     N
    N   1.0     0.503889     0.735967     0.544447  Biso 1.000000     N
    N   1.0     0.430956     0.734191     0.413428  Biso 1.000000     N
    N   1.0     0.273707     0.480019     0.072860  Biso 1.000000     N
    N   1.0     0.129414     0.448304     0.008684  Biso 1.000000     N
    N   1.0     0.113742     0.529454     0.054448  Biso 1.000000     N
    N   1.0     0.217563     0.621294     0.142782  Biso 1.000000     N
    N   1.0     0.523489     0.623822     0.983816  Biso 1.000000     N
    N   1.0     0.484846     0.605801     0.058913  Biso 1.000000     N
    N   1.0     0.496151     0.764028     0.044457  Biso 1.000000     N
    N   1.0     0.569004     0.765783     0.913480  Biso 1.000000     N
    N   1.0     0.226032     0.980842     0.927481  Biso 1.000000     N
    N   1.0     0.370541     0.948378     0.991218  Biso 1.000000     N
    N   1.0     0.386629     0.029818     0.945645  Biso 1.000000     N
    N   1.0     0.282721     0.122345     0.857939  Biso 1.000000     N
    N   1.0     0.976199     0.122858     0.018544  Biso 1.000000     N
    N   1.0     0.014149     0.105561     0.943111  Biso 1.000000     N
    N   1.0     0.001233     0.263577     0.957872  Biso 1.000000     N
    N   1.0     0.929751     0.264093     0.089270  Biso 1.000000     N
    N   1.0     0.773718     0.519236     0.427673  Biso 1.000000     N
    N   1.0     0.629280     0.551656     0.491286  Biso 1.000000     N
    N   1.0     0.613200     0.470214     0.445729  Biso 1.000000     N
    N   1.0     0.717118     0.377774     0.358062  Biso 1.000000     N
    N   1.0     0.023646     0.377332     0.518599  Biso 1.000000     N
    N   1.0     0.985630     0.394593     0.443140  Biso 1.000000     N
    N   1.0     0.998583     0.236581     0.457937  Biso 1.000000     N
    N   1.0     0.070147     0.236041     0.589354  Biso 1.000000     N
    O   1.0     0.394747     0.066966     0.276132  Biso 1.000000     O
    O   1.0     0.475376     0.895311     0.316680  Biso 1.000000     O
    O   1.0     0.417771     0.029593     0.146874  Biso 1.000000     O
    O   1.0     0.493292     0.858345     0.189759  Biso 1.000000     O
    O   1.0     0.605054     0.432967     0.776151  Biso 1.000000     O
    O   1.0     0.524557     0.604642     0.816650  Biso 1.000000     O
    O   1.0     0.582179     0.470435     0.646873  Biso 1.000000     O
    O   1.0     0.506681     0.641652     0.689719  Biso 1.000000     O
    O   1.0     0.896486     0.932467     0.223688  Biso 1.000000     O
    O   1.0     0.977186     0.104593     0.186018  Biso 1.000000     O
    O   1.0     0.920019     0.966608     0.353627  Biso 1.000000     O
    O   1.0    -0.008513     0.141110     0.313341  Biso 1.000000     O
    O   1.0     0.103886     0.567496     0.723738  Biso 1.000000     O
    O   1.0     0.022894     0.395507     0.685943  Biso 1.000000     O
    O   1.0     0.080016     0.533432     0.853631  Biso 1.000000     O
    O   1.0     0.000000     0.358993     0.813253  Biso 1.000000     O
    O   1.0     0.604800     0.932910     0.724063  Biso 1.000000     O
    O   1.0     0.524535     0.104694     0.683426  Biso 1.000000     O
    O   1.0     0.582167     0.970485     0.853297  Biso 1.000000     O
    O   1.0     0.506554     0.141662     0.810355  Biso 1.000000     O
    O   1.0     0.395174     0.567083     0.224013  Biso 1.000000     O
    O   1.0     0.475460     0.395332     0.183433  Biso 1.000000     O
    O   1.0     0.417763     0.529456     0.353264  Biso 1.000000     O
    O   1.0     0.493402     0.358325     0.310377  Biso 1.000000     O
    O   1.0     0.102706     0.069305     0.776922  Biso 1.000000     O
    O   1.0     0.023009     0.896176     0.816580  Biso 1.000000     O
    O   1.0     0.079651     0.032664     0.647500  Biso 1.000000     O
    O   1.0     0.000000     0.860026     0.689555  Biso 1.000000     O
    O   1.0     0.897265     0.429609     0.276412  Biso 1.000000     O
    O   1.0     0.973269     0.604079     0.316377  Biso 1.000000     O
    O   1.0     0.920326     0.466807     0.147074  Biso 1.000000     O
    O   1.0    -0.008773     0.640477     0.189503  Biso 1.000000     O
   Zn   1.0     0.426509     0.979636     0.406386  Biso 1.000000    Zn
   Zn   1.0     0.476182     0.908357     0.073147  Biso 1.000000    Zn
   Zn   1.0     0.573372     0.520319     0.906398  Biso 1.000000    Zn
   Zn   1.0     0.523781     0.591640     0.573141  Biso 1.000000    Zn
   Zn   1.0     0.927567     0.018613     0.096604  Biso 1.000000    Zn
   Zn   1.0     0.977801     0.092263     0.429434  Biso 1.000000    Zn
   Zn   1.0     0.072499     0.481779     0.596637  Biso 1.000000    Zn
   Zn   1.0     0.022100     0.407815     0.929393  Biso 1.000000    Zn
   Zn   1.0     0.573159     0.020398     0.593657  Biso 1.000000    Zn
   Zn   1.0     0.524036     0.091525     0.926990  Biso 1.000000    Zn
   Zn   1.0     0.426799     0.479663     0.093661  Biso 1.000000    Zn
   Zn   1.0     0.475832     0.408464     0.427016  Biso 1.000000    Zn
   Zn   1.0     0.072134     0.980350     0.906650  Biso 1.000000    Zn
   Zn   1.0     0.022261     0.908492     0.573250  Biso 1.000000    Zn
   Zn   1.0     0.927343     0.519741     0.406852  Biso 1.000000    Zn
   Zn   1.0     0.977524     0.591616     0.073254  Biso 1.000000    Zn
