#======================================================================

# CRYSTAL DATA

#----------------------------------------------------------------------

data_VESTA_phase_1


_pd_phase_name                         MOF
_cell_length_a                         13.07500
_cell_length_b                         13.97500
_cell_length_c                         16.92400
_cell_angle_alpha                      90.00100
_cell_angle_beta                       90.00000
_cell_angle_gamma                      89.90000
_symmetry_space_group_name_H-M         "P 1"
_symmetry_Int_Tables_number            1

loop_
_symmetry_equiv_pos_as_xyz
   "x, y, z"

loop_
   _atom_site_label
   _atom_site_occupancy
   _atom_site_fract_x
   _atom_site_fract_y
   _atom_site_fract_z
   _atom_site_adp_type
   _atom_site_B_iso_or_equiv
   _atom_site_type_symbol
    H   1.0     0.945644     0.200384     0.651105  Biso 1.000000     H
    H   1.0     0.738906     0.358964     0.504874  Biso 1.000000     H
    H   1.0     0.060573     0.227475     0.358456  Biso 1.000000     H
    H   1.0     0.067171     0.336822     0.405488  Biso 1.000000     H
    H   1.0     0.724817     0.612540     0.316970  Biso 1.000000     H
    H   1.0     0.848126     0.651677     0.334971  Biso 1.000000     H
    H   1.0     0.054367     0.299581     0.151075  Biso 1.000000     H
    H   1.0     0.261085     0.141038     0.004840  Biso 1.000000     H
    H   1.0     0.939362     0.272515     0.858463  Biso 1.000000     H
    H   1.0     0.932794     0.163165     0.905484  Biso 1.000000     H
    H   1.0     0.275235     0.887433     0.816987  Biso 1.000000     H
    H   1.0     0.151930     0.848274     0.834979  Biso 1.000000     H
    H   1.0     0.442950     0.800415     0.848938  Biso 1.000000     H
    H   1.0     0.237694     0.639644     0.995402  Biso 1.000000     H
    H   1.0     0.558852     0.771762     0.141162  Biso 1.000000     H
    H   1.0     0.566082     0.662757     0.093715  Biso 1.000000     H
    H   1.0     0.224449     0.385891     0.182685  Biso 1.000000     H
    H   1.0     0.348289     0.347372     0.165599  Biso 1.000000     H
    H   1.0     0.557186     0.699585     0.348971  Biso 1.000000     H
    H   1.0     0.762253     0.860271     0.495426  Biso 1.000000     H
    H   1.0     0.440933     0.728239     0.641123  Biso 1.000000     H
    H   1.0     0.433761     0.837228     0.593678  Biso 1.000000     H
    H   1.0     0.775550     0.114102     0.682654  Biso 1.000000     H
    H   1.0     0.651735     0.152660     0.665540  Biso 1.000000     H
    H   1.0     0.054268     0.799588     0.348902  Biso 1.000000     H
    H   1.0     0.261039     0.641096     0.495239  Biso 1.000000     H
    H   1.0     0.939424     0.772482     0.641571  Biso 1.000000     H
    H   1.0     0.932823     0.663137     0.594538  Biso 1.000000     H
    H   1.0     0.275191     0.387495     0.683104  Biso 1.000000     H
    H   1.0     0.151888     0.348328     0.665104  Biso 1.000000     H
    H   1.0     0.945623     0.700409     0.848959  Biso 1.000000     H
    H   1.0     0.738912     0.858964     0.995179  Biso 1.000000     H
    H   1.0     0.060659     0.727466     0.141565  Biso 1.000000     H
    H   1.0     0.067221     0.836819     0.094548  Biso 1.000000     H
    H   1.0     0.724776     0.112565     0.183036  Biso 1.000000     H
    H   1.0     0.848084     0.151715     0.165048  Biso 1.000000     H
    H   1.0     0.557054     0.199593     0.151075  Biso 1.000000     H
    H   1.0     0.762305     0.360357     0.004633  Biso 1.000000     H
    H   1.0     0.441144     0.228252     0.858854  Biso 1.000000     H
    H   1.0     0.433914     0.337256     0.906302  Biso 1.000000     H
    H   1.0     0.775554     0.614095     0.817339  Biso 1.000000     H
    H   1.0     0.651716     0.652622     0.834425  Biso 1.000000     H
    H   1.0     0.442705     0.300393     0.651018  Biso 1.000000     H
    H   1.0     0.237684     0.139645     0.504621  Biso 1.000000     H
    H   1.0     0.558993     0.271761     0.358871  Biso 1.000000     H
    H   1.0     0.566136     0.162757     0.406308  Biso 1.000000     H
    H   1.0     0.224415     0.885839     0.317364  Biso 1.000000     H
    H   1.0     0.348238     0.847299     0.334467  Biso 1.000000     H
    C   1.0     0.967062     0.416482     0.742024  Biso 1.000000     C
    C   1.0     0.923931     0.515862     0.719297  Biso 1.000000     C
    C   1.0     0.031077     0.219144     0.474682  Biso 1.000000     C
    C   1.0     0.973236     0.191167     0.591332  Biso 1.000000     C
    C   1.0     0.798305     0.546853     0.406976  Biso 1.000000     C
    C   1.0     0.774337     0.420949     0.477797  Biso 1.000000     C
    C   1.0     0.032943     0.083509     0.242006  Biso 1.000000     C
    C   1.0     0.076065     0.984117     0.219275  Biso 1.000000     C
    C   1.0     0.968887     0.280839     0.974683  Biso 1.000000     C
    C   1.0     0.026760     0.308803     0.091307  Biso 1.000000     C
    C   1.0     0.201720     0.953120     0.906980  Biso 1.000000     C
    C   1.0     0.225666     0.079047     0.977788  Biso 1.000000     C
    C   1.0     0.467838     0.583996     0.757856  Biso 1.000000     C
    C   1.0     0.422766     0.485423     0.780374  Biso 1.000000     C
    C   1.0     0.529528     0.780700     0.024899  Biso 1.000000     C
    C   1.0     0.470961     0.809346     0.908612  Biso 1.000000     C
    C   1.0     0.298314     0.451871     0.093177  Biso 1.000000     C
    C   1.0     0.273526     0.577753     0.022462  Biso 1.000000     C
    C   1.0     0.532150     0.916006     0.257848  Biso 1.000000     C
    C   1.0     0.577232     0.014581     0.280365  Biso 1.000000     C
    C   1.0     0.470384     0.719292     0.524885  Biso 1.000000     C
    C   1.0     0.529104     0.690652     0.408624  Biso 1.000000     C
    C   1.0     0.701687     0.048121     0.593150  Biso 1.000000     C
    C   1.0     0.726442     0.922189     0.522480  Biso 1.000000     C
    C   1.0     0.032952     0.583482     0.258009  Biso 1.000000     C
    C   1.0     0.076070     0.484098     0.280750  Biso 1.000000     C
    C   1.0     0.968892     0.780821     0.525342  Biso 1.000000     C
    C   1.0     0.026696     0.808804     0.408681  Biso 1.000000     C
    C   1.0     0.201684     0.453166     0.593098  Biso 1.000000     C
    C   1.0     0.225628     0.579088     0.522295  Biso 1.000000     C
    C   1.0     0.967068     0.916449     0.758017  Biso 1.000000     C
    C   1.0     0.923926     0.015833     0.780735  Biso 1.000000     C
    C   1.0     0.031118     0.719148     0.025347  Biso 1.000000     C
    C   1.0     0.973235     0.691186     0.908725  Biso 1.000000     C
    C   1.0     0.798286     0.046877     0.093042  Biso 1.000000     C
    C   1.0     0.774334     0.920953     0.022231  Biso 1.000000     C
    C   1.0     0.532185     0.416008     0.242164  Biso 1.000000     C
    C   1.0     0.577253     0.514583     0.219651  Biso 1.000000     C
    C   1.0     0.470471     0.219312     0.975117  Biso 1.000000     C
    C   1.0     0.529041     0.190663     0.091402  Biso 1.000000     C
    C   1.0     0.701689     0.548126     0.906851  Biso 1.000000     C
    C   1.0     0.726474     0.422247     0.977570  Biso 1.000000     C
    C   1.0     0.467844     0.083990     0.742157  Biso 1.000000     C
    C   1.0     0.422763     0.985413     0.719646  Biso 1.000000     C
    C   1.0     0.529531     0.280694     0.475110  Biso 1.000000     C
    C   1.0     0.470800     0.309329     0.591370  Biso 1.000000     C
    C   1.0     0.298281     0.951828     0.406864  Biso 1.000000     C
    C   1.0     0.273510     0.077744     0.477553  Biso 1.000000     C
    N   1.0     0.999281     0.263952     0.542327  Biso 1.000000     N
    N   1.0     0.986634     0.106232     0.557978  Biso 1.000000     N
    N   1.0     0.024288     0.122899     0.482070  Biso 1.000000     N
    N   1.0     0.070832     0.263751     0.410416  Biso 1.000000     N
    N   1.0     0.869827     0.447924     0.491246  Biso 1.000000     N
    N   1.0     0.885903     0.529729     0.446281  Biso 1.000000     N
    N   1.0     0.725995     0.479840     0.425744  Biso 1.000000     N
    N   1.0     0.782734     0.622293     0.357466  Biso 1.000000     N
    N   1.0     0.000704     0.236024     0.042300  Biso 1.000000     N
    N   1.0     0.013343     0.393741     0.057965  Biso 1.000000     N
    N   1.0     0.975676     0.377082     0.982079  Biso 1.000000     N
    N   1.0     0.929112     0.236234     0.910421  Biso 1.000000     N
    N   1.0     0.130178     0.052066     0.991240  Biso 1.000000     N
    N   1.0     0.114118     0.970244     0.946280  Biso 1.000000     N
    N   1.0     0.274017     0.020153     0.925742  Biso 1.000000     N
    N   1.0     0.217311     0.877675     0.857478  Biso 1.000000     N
    N   1.0     0.496836     0.736229     0.957471  Biso 1.000000     N
    N   1.0     0.485192     0.894186     0.941904  Biso 1.000000     N
    N   1.0     0.523460     0.876975     0.017555  Biso 1.000000     N
    N   1.0     0.569475     0.735807     0.089078  Biso 1.000000     N
    N   1.0     0.369377     0.551334     0.009275  Biso 1.000000     N
    N   1.0     0.386069     0.469492     0.054208  Biso 1.000000     N
    N   1.0     0.225433     0.518514     0.074250  Biso 1.000000     N
    N   1.0     0.282850     0.376323     0.142573  Biso 1.000000     N
    N   1.0     0.503150     0.763767     0.457462  Biso 1.000000     N
    N   1.0     0.514853     0.605812     0.441909  Biso 1.000000     N
    N   1.0     0.476487     0.623019     0.517549  Biso 1.000000     N
    N   1.0     0.430327     0.764178     0.589031  Biso 1.000000     N
    N   1.0     0.630603     0.948634     0.509275  Biso 1.000000     N
    N   1.0     0.613930     0.030510     0.554181  Biso 1.000000     N
    N   1.0     0.774552     0.981439     0.574251  Biso 1.000000     N
    N   1.0     0.717171     0.123689     0.642525  Biso 1.000000     N
    N   1.0     0.000673     0.736018     0.457691  Biso 1.000000     N
    N   1.0     0.013299     0.893737     0.442038  Biso 1.000000     N
    N   1.0     0.975672     0.877066     0.517954  Biso 1.000000     N
    N   1.0     0.929156     0.736208     0.589612  Biso 1.000000     N
    N   1.0     0.130152     0.552082     0.508823  Biso 1.000000     N
    N   1.0     0.114093     0.470264     0.553776  Biso 1.000000     N
    N   1.0     0.273976     0.520205     0.574350  Biso 1.000000     N
    N   1.0     0.217270     0.377732     0.642611  Biso 1.000000     N
    N   1.0     0.999296     0.763964     0.957732  Biso 1.000000     N
    N   1.0     0.986655     0.606248     0.942065  Biso 1.000000     N
    N   1.0     0.024328     0.622905     0.017949  Biso 1.000000     N
    N   1.0     0.070900     0.763749     0.089608  Biso 1.000000     N
    N   1.0     0.869824     0.947931     0.008780  Biso 1.000000     N
    N   1.0     0.885887     0.029751     0.053740  Biso 1.000000     N
    N   1.0     0.725986     0.979849     0.074278  Biso 1.000000     N
    N   1.0     0.782700     0.122322     0.142546  Biso 1.000000     N
    N   1.0     0.503162     0.263781     0.042545  Biso 1.000000     N
    N   1.0     0.514812     0.105824     0.058108  Biso 1.000000     N
    N   1.0     0.476543     0.123037     0.982457  Biso 1.000000     N
    N   1.0     0.430522     0.264205     0.910938  Biso 1.000000     N
    N   1.0     0.630625     0.448669     0.990756  Biso 1.000000     N
    N   1.0     0.613934     0.530510     0.945821  Biso 1.000000     N
    N   1.0     0.774568     0.481481     0.925780  Biso 1.000000     N
    N   1.0     0.717155     0.623671     0.857452  Biso 1.000000     N
    N   1.0     0.496747     0.236217     0.542527  Biso 1.000000     N
    N   1.0     0.485077     0.394171     0.558095  Biso 1.000000     N
    N   1.0     0.523451     0.376967     0.482456  Biso 1.000000     N
    N   1.0     0.569569     0.235806     0.410960  Biso 1.000000     N
    N   1.0     0.369359     0.051319     0.490740  Biso 1.000000     N
    N   1.0     0.386043     0.969456     0.445822  Biso 1.000000     N
    N   1.0     0.225405     0.018491     0.425782  Biso 1.000000     N
    N   1.0     0.282803     0.876263     0.357486  Biso 1.000000     N
    O   1.0    -0.008845     0.359177     0.687067  Biso 1.000000     O
    O   1.0     0.920017     0.533523     0.645974  Biso 1.000000     O
    O   1.0     0.897541     0.569051     0.776238  Biso 1.000000     O
    O   1.0     0.977376     0.396121     0.814650  Biso 1.000000     O
    O   1.0     0.000000     0.140809     0.187049  Biso 1.000000     O
    O   1.0     0.079986     0.966462     0.145949  Biso 1.000000     O
    O   1.0     0.102459     0.930926     0.276210  Biso 1.000000     O
    O   1.0     0.022624     0.103871     0.314632  Biso 1.000000     O
    O   1.0     0.492579     0.640781     0.812937  Biso 1.000000     O
    O   1.0     0.418192     0.467315     0.853614  Biso 1.000000     O
    O   1.0     0.395693     0.433095     0.723146  Biso 1.000000     O
    O   1.0     0.478938     0.604152     0.685257  Biso 1.000000     O
    O   1.0     0.507418     0.859217     0.312927  Biso 1.000000     O
    O   1.0     0.581800     0.032697     0.353605  Biso 1.000000     O
    O   1.0     0.604308     0.066903     0.223135  Biso 1.000000     O
    O   1.0     0.521045     0.895851     0.185249  Biso 1.000000     O
    O   1.0     0.000000     0.640788     0.312962  Biso 1.000000     O
    O   1.0     0.079984     0.466465     0.354079  Biso 1.000000     O
    O   1.0     0.102452     0.430879     0.223829  Biso 1.000000     O
    O   1.0     0.022647     0.603847     0.185383  Biso 1.000000     O
    O   1.0    -0.008828     0.859158     0.812980  Biso 1.000000     O
    O   1.0     0.920015     0.033523     0.854054  Biso 1.000000     O
    O   1.0     0.897508     0.068985     0.723780  Biso 1.000000     O
    O   1.0     0.977394     0.896088     0.685393  Biso 1.000000     O
    O   1.0     0.507439     0.359225     0.187083  Biso 1.000000     O
    O   1.0     0.581816     0.532697     0.146411  Biso 1.000000     O
    O   1.0     0.604326     0.566906     0.276882  Biso 1.000000     O
    O   1.0     0.521094     0.395845     0.314762  Biso 1.000000     O
    O   1.0     0.492579     0.140774     0.687074  Biso 1.000000     O
    O   1.0     0.418190     0.967293     0.646407  Biso 1.000000     O
    O   1.0     0.395691     0.933095     0.776879  Biso 1.000000     O
    O   1.0     0.478948     0.104153     0.814755  Biso 1.000000     O
   Zn   1.0     0.977638     0.407676     0.570448  Biso 1.000000    Zn
   Zn   1.0     0.928443     0.482406     0.903693  Biso 1.000000    Zn
   Zn   1.0     0.022360     0.092308     0.070427  Biso 1.000000    Zn
   Zn   1.0     0.071539     0.017584     0.403682  Biso 1.000000    Zn
   Zn   1.0     0.476222     0.592225     0.929500  Biso 1.000000    Zn
   Zn   1.0     0.427344     0.519378     0.596124  Biso 1.000000    Zn
   Zn   1.0     0.523768     0.907768     0.429479  Biso 1.000000    Zn
   Zn   1.0     0.572635     0.980634     0.096113  Biso 1.000000    Zn
   Zn   1.0     0.022365     0.592301     0.429589  Biso 1.000000    Zn
   Zn   1.0     0.071557     0.517582     0.096327  Biso 1.000000    Zn
   Zn   1.0     0.977646     0.907681     0.929599  Biso 1.000000    Zn
   Zn   1.0     0.928437     0.982376     0.596351  Biso 1.000000    Zn
   Zn   1.0     0.523781     0.407779     0.070527  Biso 1.000000    Zn
   Zn   1.0     0.572647     0.480619     0.403912  Biso 1.000000    Zn
   Zn   1.0     0.476214     0.092218     0.570516  Biso 1.000000    Zn
   Zn   1.0     0.427368     0.019382     0.903898  Biso 1.000000    Zn
