#======================================================================

# CRYSTAL DATA

#----------------------------------------------------------------------

data_VESTA_phase_1


_pd_phase_name                         MOF
_cell_length_a                         13.22200
_cell_length_b                         13.93600
_cell_length_c                         16.98100
_cell_angle_alpha                      89.97800
_cell_angle_beta                       89.86300
_cell_angle_gamma                      89.70000
_symmetry_space_group_name_H-M         "P 1"
_symmetry_Int_Tables_number            1

loop_
_symmetry_equiv_pos_as_xyz
   "x, y, z"

loop_
   _atom_site_label
   _atom_site_occupancy
   _atom_site_fract_x
   _atom_site_fract_y
   _atom_site_fract_z
   _atom_site_adp_type
   _atom_site_B_iso_or_equiv
   _atom_site_type_symbol
    H   1.0     0.258398     0.138631     0.990520  Biso 1.000000     H
    H   1.0     0.437507     0.801430     0.150624  Biso 1.000000     H
    H   1.0     0.150520     0.850938     0.166532  Biso 1.000000     H
    H   1.0     0.272885     0.889468     0.182870  Biso 1.000000     H
    H   1.0     0.566560     0.770235     0.862818  Biso 1.000000     H
    H   1.0     0.568612     0.661092     0.910303  Biso 1.000000     H
    H   1.0     0.742202     0.361286     0.490959  Biso 1.000000     H
    H   1.0     0.561887     0.698627     0.651041  Biso 1.000000     H
    H   1.0     0.849740     0.648317     0.667244  Biso 1.000000     H
    H   1.0     0.727244     0.609863     0.683650  Biso 1.000000     H
    H   1.0     0.434722     0.729458     0.363329  Biso 1.000000     H
    H   1.0     0.431234     0.838567     0.410449  Biso 1.000000     H
    H   1.0     0.760482     0.862282     0.509038  Biso 1.000000     H
    H   1.0     0.940870     0.199452     0.348795  Biso 1.000000     H
    H   1.0     0.649568     0.149631     0.332971  Biso 1.000000     H
    H   1.0     0.772876     0.111887     0.317213  Biso 1.000000     H
    H   1.0     0.066580     0.228560     0.637075  Biso 1.000000     H
    H   1.0     0.070346     0.337721     0.589842  Biso 1.000000     H
    H   1.0     0.239922     0.638817     0.008411  Biso 1.000000     H
    H   1.0     0.059918     0.300622     0.848666  Biso 1.000000     H
    H   1.0     0.350132     0.349847     0.833842  Biso 1.000000     H
    H   1.0     0.227081     0.387838     0.818245  Biso 1.000000     H
    H   1.0     0.934104     0.271345     0.137359  Biso 1.000000     H
    H   1.0     0.931137     0.162024     0.090469  Biso 1.000000     H
    H   1.0     0.741565     0.861362     0.009475  Biso 1.000000     H
    H   1.0     0.562369     0.198615     0.849318  Biso 1.000000     H
    H   1.0     0.849491     0.149062     0.833492  Biso 1.000000     H
    H   1.0     0.727121     0.110567     0.817163  Biso 1.000000     H
    H   1.0     0.433632     0.229873     0.137210  Biso 1.000000     H
    H   1.0     0.431634     0.339015     0.089734  Biso 1.000000     H
    H   1.0     0.259570     0.638101     0.509438  Biso 1.000000     H
    H   1.0     0.439923     0.301377     0.349155  Biso 1.000000     H
    H   1.0     0.152157     0.351621     0.332554  Biso 1.000000     H
    H   1.0     0.274802     0.389847     0.316489  Biso 1.000000     H
    H   1.0     0.565835     0.270520     0.637110  Biso 1.000000     H
    H   1.0     0.569290     0.161291     0.590160  Biso 1.000000     H
    H   1.0     0.239570     0.137678     0.490996  Biso 1.000000     H
    H   1.0     0.059826     0.800358     0.651083  Biso 1.000000     H
    H   1.0     0.350543     0.850358     0.667056  Biso 1.000000     H
    H   1.0     0.227247     0.888117     0.682810  Biso 1.000000     H
    H   1.0     0.933738     0.771494     0.362914  Biso 1.000000     H
    H   1.0     0.930994     0.662115     0.409775  Biso 1.000000     H
    H   1.0     0.759978     0.361047     0.991707  Biso 1.000000     H
    H   1.0     0.940138     0.699257     0.151410  Biso 1.000000     H
    H   1.0     0.650134     0.650296     0.166140  Biso 1.000000     H
    H   1.0     0.773031     0.611976     0.181883  Biso 1.000000     H
    H   1.0     0.065727     0.728570     0.862645  Biso 1.000000     H
    H   1.0     0.068740     0.837870     0.909572  Biso 1.000000     H
    C   1.0     0.419439     0.984239     0.280194  Biso 1.000000     C
    C   1.0     0.461271     0.083638     0.256243  Biso 1.000000     C
    C   1.0     0.199683     0.953717     0.092432  Biso 1.000000     C
    C   1.0     0.223257     0.077623     0.019098  Biso 1.000000     C
    C   1.0     0.531482     0.779907     0.977771  Biso 1.000000     C
    C   1.0     0.467909     0.809751     0.091825  Biso 1.000000     C
    C   1.0     0.579856     0.513200     0.779904  Biso 1.000000     C
    C   1.0     0.535426     0.415087     0.755792  Biso 1.000000     C
    C   1.0     0.800790     0.545709     0.593164  Biso 1.000000     C
    C   1.0     0.777351     0.422084     0.519645  Biso 1.000000     C
    C   1.0     0.468656     0.719995     0.478253  Biso 1.000000     C
    C   1.0     0.531753     0.690218     0.592283  Biso 1.000000     C
    C   1.0     0.921372     0.016275     0.220119  Biso 1.000000     C
    C   1.0     0.963334     0.916531     0.243945  Biso 1.000000     C
    C   1.0     0.699457     0.046843     0.407094  Biso 1.000000     C
    C   1.0     0.724527     0.923040     0.480368  Biso 1.000000     C
    C   1.0     0.032818     0.219570     0.522053  Biso 1.000000     C
    C   1.0     0.970486     0.190677     0.407718  Biso 1.000000     C
    C   1.0     0.080129     0.483683     0.720174  Biso 1.000000     C
    C   1.0     0.037088     0.583123     0.743833  Biso 1.000000     C
    C   1.0     0.300377     0.452965     0.907718  Biso 1.000000     C
    C   1.0     0.275663     0.577592     0.980162  Biso 1.000000     C
    C   1.0     0.967973     0.280205     0.022262  Biso 1.000000     C
    C   1.0     0.030262     0.309307     0.907684  Biso 1.000000     C
    C   1.0     0.580542     0.015821     0.719785  Biso 1.000000     C
    C   1.0     0.538712     0.916441     0.743812  Biso 1.000000     C
    C   1.0     0.800318     0.046280     0.907585  Biso 1.000000     C
    C   1.0     0.776722     0.922365     0.980903  Biso 1.000000     C
    C   1.0     0.468582     0.220183     0.022232  Biso 1.000000     C
    C   1.0     0.532020     0.190306     0.908136  Biso 1.000000     C
    C   1.0     0.421572     0.486757     0.220296  Biso 1.000000     C
    C   1.0     0.465179     0.585261     0.244175  Biso 1.000000     C
    C   1.0     0.201095     0.453936     0.406968  Biso 1.000000     C
    C   1.0     0.224484     0.577349     0.480636  Biso 1.000000     C
    C   1.0     0.532706     0.279875     0.522070  Biso 1.000000     C
    C   1.0     0.470054     0.309737     0.407913  Biso 1.000000     C
    C   1.0     0.078624     0.983729     0.779863  Biso 1.000000     C
    C   1.0     0.036654     0.083471     0.756041  Biso 1.000000     C
    C   1.0     0.300624     0.953087     0.592887  Biso 1.000000     C
    C   1.0     0.275523     0.076897     0.519635  Biso 1.000000     C
    C   1.0     0.967734     0.780230     0.477862  Biso 1.000000     C
    C   1.0     0.030103     0.809123     0.592191  Biso 1.000000     C
    C   1.0     0.921267     0.516275     0.280076  Biso 1.000000     C
    C   1.0     0.963365     0.416574     0.256144  Biso 1.000000     C
    C   1.0     0.699703     0.546979     0.092356  Biso 1.000000     C
    C   1.0     0.724293     0.422315     0.019938  Biso 1.000000     C
    C   1.0     0.031928     0.719670     0.977763  Biso 1.000000     C
    C   1.0     0.969730     0.690573     0.092369  Biso 1.000000     C
    N   1.0     0.271519     0.019527     0.071558  Biso 1.000000     N
    N   1.0     0.128402     0.051299     0.007260  Biso 1.000000     N
    N   1.0     0.112567     0.970717     0.053908  Biso 1.000000     N
    N   1.0     0.215094     0.879379     0.143118  Biso 1.000000     N
    N   1.0     0.525249     0.876576     0.984350  Biso 1.000000     N
    N   1.0     0.483532     0.894569     0.058575  Biso 1.000000     N
    N   1.0     0.495955     0.735980     0.044345  Biso 1.000000     N
    N   1.0     0.573755     0.734168     0.915085  Biso 1.000000     N
    N   1.0     0.728900     0.480107     0.572197  Biso 1.000000     N
    N   1.0     0.872360     0.448206     0.507854  Biso 1.000000     N
    N   1.0     0.888151     0.528578     0.554660  Biso 1.000000     N
    N   1.0     0.785227     0.620013     0.643865  Biso 1.000000     N
    N   1.0     0.475473     0.623351     0.484771  Biso 1.000000     N
    N   1.0     0.516844     0.605402     0.558942  Biso 1.000000     N
    N   1.0     0.503497     0.763977     0.544880  Biso 1.000000     N
    N   1.0     0.426480     0.765450     0.415549  Biso 1.000000     N
    N   1.0     0.772351     0.981588     0.428198  Biso 1.000000     N
    N   1.0     0.628975     0.948535     0.491804  Biso 1.000000     N
    N   1.0     0.612080     0.029051     0.445130  Biso 1.000000     N
    N   1.0     0.714276     0.121443     0.356623  Biso 1.000000     N
    N   1.0     0.025463     0.123024     0.515619  Biso 1.000000     N
    N   1.0     0.984622     0.105670     0.441241  Biso 1.000000     N
    N   1.0     0.998813     0.264009     0.455184  Biso 1.000000     N
    N   1.0     0.074744     0.264533     0.584860  Biso 1.000000     N
    N   1.0     0.227762     0.518822     0.928395  Biso 1.000000     N
    N   1.0     0.371015     0.551697     0.991756  Biso 1.000000     N
    N   1.0     0.387648     0.470601     0.945660  Biso 1.000000     N
    N   1.0     0.285362     0.378052     0.857694  Biso 1.000000     N
    N   1.0     0.975086     0.376742     0.015732  Biso 1.000000     N
    N   1.0     0.015860     0.394259     0.941215  Biso 1.000000     N
    N   1.0     0.002132     0.235892     0.955296  Biso 1.000000     N
    N   1.0     0.926140     0.235177     0.085260  Biso 1.000000     N
    N   1.0     0.728466     0.980492     0.928462  Biso 1.000000     N
    N   1.0     0.871592     0.948653     0.992725  Biso 1.000000     N
    N   1.0     0.887440     0.029239     0.946086  Biso 1.000000     N
    N   1.0     0.784913     0.120637     0.856914  Biso 1.000000     N
    N   1.0     0.474789     0.123510     0.015667  Biso 1.000000     N
    N   1.0     0.516421     0.105496     0.941412  Biso 1.000000     N
    N   1.0     0.504042     0.264091     0.955621  Biso 1.000000     N
    N   1.0     0.426409     0.265946     0.084946  Biso 1.000000     N
    N   1.0     0.273118     0.519343     0.428144  Biso 1.000000     N
    N   1.0     0.129356     0.551380     0.492220  Biso 1.000000     N
    N   1.0     0.113596     0.471045     0.445313  Biso 1.000000     N
    N   1.0     0.216644     0.379736     0.356110  Biso 1.000000     N
    N   1.0     0.526741     0.376538     0.515333  Biso 1.000000     N
    N   1.0     0.485638     0.394539     0.441093  Biso 1.000000     N
    N   1.0     0.497613     0.235924     0.455492  Biso 1.000000     N
    N   1.0     0.574338     0.234390     0.584982  Biso 1.000000     N
    N   1.0     0.227725     0.018346     0.571817  Biso 1.000000     N
    N   1.0     0.371064     0.051393     0.508152  Biso 1.000000     N
    N   1.0     0.387978     0.970848     0.554803  Biso 1.000000     N
    N   1.0     0.285826     0.878514     0.643390  Biso 1.000000     N
    N   1.0     0.974689     0.876791     0.484430  Biso 1.000000     N
    N   1.0     0.015540     0.894142     0.558803  Biso 1.000000     N
    N   1.0     0.002038     0.735783     0.544645  Biso 1.000000     N
    N   1.0     0.925883     0.735256     0.415039  Biso 1.000000     N
    N   1.0     0.772245     0.481050     0.071705  Biso 1.000000     N
    N   1.0     0.628977     0.448306     0.008321  Biso 1.000000     N
    N   1.0     0.612417     0.529432     0.054404  Biso 1.000000     N
    N   1.0     0.714852     0.621873     0.142382  Biso 1.000000     N
    N   1.0     0.024820     0.623130     0.984282  Biso 1.000000     N
    N   1.0     0.984099     0.605617     0.058828  Biso 1.000000     N
    N   1.0     0.997823     0.763993     0.044746  Biso 1.000000     N
    N   1.0     0.073711     0.764714     0.914751  Biso 1.000000     N
    O   1.0     0.391618     0.930611     0.224506  Biso 1.000000     O
    O   1.0     0.466944     0.104739     0.183645  Biso 1.000000     O
    O   1.0     0.417993     0.967067     0.353530  Biso 1.000000     O
    O   1.0     0.488571     0.140425     0.310353  Biso 1.000000     O
    O   1.0     0.608402     0.566819     0.724328  Biso 1.000000     O
    O   1.0     0.528783     0.395022     0.683092  Biso 1.000000     O
    O   1.0     0.582456     0.529659     0.853368  Biso 1.000000     O
    O   1.0     0.507149     0.358669     0.809951  Biso 1.000000     O
    O   1.0     0.893390     0.070204     0.275862  Biso 1.000000     O
    O   1.0     0.969170     0.895503     0.316525  Biso 1.000000     O
    O   1.0     0.919862     0.033293     0.146749  Biso 1.000000     O
    O   1.0     0.990815     0.859536     0.189746  Biso 1.000000     O
    O   1.0     0.107166     0.429780     0.776161  Biso 1.000000     O
    O   1.0     0.030892     0.604438     0.816354  Biso 1.000000     O
    O   1.0     0.083368     0.466872     0.646825  Biso 1.000000     O
    O   1.0     0.009104     0.639663     0.689534  Biso 1.000000     O
    O   1.0     0.608358     0.069558     0.775390  Biso 1.000000     O
    O   1.0     0.533082     0.895373     0.816418  Biso 1.000000     O
    O   1.0     0.581985     0.032881     0.646422  Biso 1.000000     O
    O   1.0     0.511376     0.859630     0.689740  Biso 1.000000     O
    O   1.0     0.394746     0.432710     0.276096  Biso 1.000000     O
    O   1.0     0.471602     0.605687     0.316828  Biso 1.000000     O
    O   1.0     0.417789     0.470458     0.146835  Biso 1.000000     O
    O   1.0     0.493001     0.641663     0.189896  Biso 1.000000     O
    O   1.0     0.106618     0.929807     0.724111  Biso 1.000000     O
    O   1.0     0.030830     0.104495     0.683461  Biso 1.000000     O
    O   1.0     0.080134     0.966698     0.853228  Biso 1.000000     O
    O   1.0     0.009163     0.140451     0.810249  Biso 1.000000     O
    O   1.0     0.893095     0.570132     0.224439  Biso 1.000000     O
    O   1.0     0.969078     0.395461     0.183561  Biso 1.000000     O
    O   1.0     0.919931     0.533308     0.353451  Biso 1.000000     O
    O   1.0     0.991086     0.359662     0.310260  Biso 1.000000     O
   Zn   1.0     0.422930     0.020247     0.093079  Biso 1.000000    Zn
   Zn   1.0     0.476083     0.091493     0.426793  Biso 1.000000    Zn
   Zn   1.0     0.577084     0.479594     0.593309  Biso 1.000000    Zn
   Zn   1.0     0.523887     0.408490     0.926740  Biso 1.000000    Zn
   Zn   1.0     0.924346     0.980763     0.406841  Biso 1.000000    Zn
   Zn   1.0     0.977613     0.908506     0.073295  Biso 1.000000    Zn
   Zn   1.0     0.075828     0.519473     0.906773  Biso 1.000000    Zn
   Zn   1.0     0.022915     0.591273     0.573170  Biso 1.000000    Zn
   Zn   1.0     0.577061     0.979818     0.906966  Biso 1.000000    Zn
   Zn   1.0     0.524001     0.908541     0.573262  Biso 1.000000    Zn
   Zn   1.0     0.425737     0.520319     0.406779  Biso 1.000000    Zn
   Zn   1.0     0.476128     0.591564     0.073242  Biso 1.000000    Zn
   Zn   1.0     0.075691     0.019026     0.593221  Biso 1.000000    Zn
   Zn   1.0     0.022382     0.091466     0.926704  Biso 1.000000    Zn
   Zn   1.0     0.924176     0.480347     0.093194  Biso 1.000000    Zn
   Zn   1.0     0.978265     0.408660     0.426651  Biso 1.000000    Zn
