#======================================================================

# CRYSTAL DATA

#----------------------------------------------------------------------

data_VESTA_phase_1


_pd_phase_name                         MOF
_cell_length_a                         13.17200
_cell_length_b                         13.94800
_cell_length_c                         16.99100
_cell_angle_alpha                      90.05000
_cell_angle_beta                       90.01600
_cell_angle_gamma                      90.24600
_symmetry_space_group_name_H-M         "P 1"
_symmetry_Int_Tables_number            1

loop_
_symmetry_equiv_pos_as_xyz
   "x, y, z"

loop_
   _atom_site_label
   _atom_site_occupancy
   _atom_site_fract_x
   _atom_site_fract_y
   _atom_site_fract_z
   _atom_site_adp_type
   _atom_site_B_iso_or_equiv
   _atom_site_type_symbol
    H   1.0     0.259038     0.860262     0.508001  Biso 1.000000     H
    H   1.0     0.441598     0.198827     0.348418  Biso 1.000000     H
    H   1.0     0.152939     0.149902     0.334248  Biso 1.000000     H
    H   1.0     0.275515     0.110923     0.317935  Biso 1.000000     H
    H   1.0     0.561910     0.229269     0.638153  Biso 1.000000     H
    H   1.0     0.567165     0.338547     0.591244  Biso 1.000000     H
    H   1.0     0.740679     0.638904     0.008734  Biso 1.000000     H
    H   1.0     0.558311     0.301094     0.848546  Biso 1.000000     H
    H   1.0     0.847641     0.349909     0.834041  Biso 1.000000     H
    H   1.0     0.724764     0.388502     0.817791  Biso 1.000000     H
    H   1.0     0.438349     0.270271     0.138581  Biso 1.000000     H
    H   1.0     0.434341     0.160862     0.091105  Biso 1.000000     H
    H   1.0     0.759838     0.140181     0.993125  Biso 1.000000     H
    H   1.0     0.941149     0.800874     0.151599  Biso 1.000000     H
    H   1.0     0.651008     0.849365     0.165548  Biso 1.000000     H
    H   1.0     0.773832     0.888481     0.182244  Biso 1.000000     H
    H   1.0     0.061180     0.771299     0.862015  Biso 1.000000     H
    H   1.0     0.066923     0.662264     0.908997  Biso 1.000000     H
    H   1.0     0.239733     0.360645     0.492137  Biso 1.000000     H
    H   1.0     0.058389     0.699080     0.651775  Biso 1.000000     H
    H   1.0     0.349749     0.650634     0.665660  Biso 1.000000     H
    H   1.0     0.226728     0.611796     0.682364  Biso 1.000000     H
    H   1.0     0.939005     0.729135     0.361754  Biso 1.000000     H
    H   1.0     0.934218     0.838238     0.409314  Biso 1.000000     H
    H   1.0     0.740989     0.139719     0.492002  Biso 1.000000     H
    H   1.0     0.558419     0.801152     0.651585  Biso 1.000000     H
    H   1.0     0.847089     0.850079     0.665755  Biso 1.000000     H
    H   1.0     0.724513     0.889057     0.682067  Biso 1.000000     H
    H   1.0     0.438105     0.770710     0.361851  Biso 1.000000     H
    H   1.0     0.432848     0.661433     0.408762  Biso 1.000000     H
    H   1.0     0.259346     0.361073     0.991269  Biso 1.000000     H
    H   1.0     0.441713     0.698884     0.151455  Biso 1.000000     H
    H   1.0     0.152383     0.650066     0.165965  Biso 1.000000     H
    H   1.0     0.275261     0.611473     0.182214  Biso 1.000000     H
    H   1.0     0.561670     0.729709     0.861418  Biso 1.000000     H
    H   1.0     0.565678     0.839118     0.908895  Biso 1.000000     H
    H   1.0     0.240183     0.859805     0.006883  Biso 1.000000     H
    H   1.0     0.058871     0.199107     0.848402  Biso 1.000000     H
    H   1.0     0.349015     0.150621     0.834462  Biso 1.000000     H
    H   1.0     0.226191     0.111507     0.817766  Biso 1.000000     H
    H   1.0     0.938838     0.228680     0.137985  Biso 1.000000     H
    H   1.0     0.933095     0.337715     0.091004  Biso 1.000000     H
    H   1.0     0.760284     0.639343     0.507856  Biso 1.000000     H
    H   1.0     0.941625     0.300900     0.348226  Biso 1.000000     H
    H   1.0     0.650270     0.349346     0.334342  Biso 1.000000     H
    H   1.0     0.773291     0.388184     0.317635  Biso 1.000000     H
    H   1.0     0.061000     0.270846     0.638249  Biso 1.000000     H
    H   1.0     0.065789     0.161742     0.590689  Biso 1.000000     H
    C   1.0     0.466623     0.915061     0.244105  Biso 1.000000     C
    C   1.0     0.422014     0.013238     0.220316  Biso 1.000000     C
    C   1.0     0.201432     0.046520     0.407780  Biso 1.000000     C
    C   1.0     0.224211     0.921755     0.479981  Biso 1.000000     C
    C   1.0     0.530773     0.220168     0.522707  Biso 1.000000     C
    C   1.0     0.470506     0.190400     0.407593  Biso 1.000000     C
    C   1.0     0.536665     0.583571     0.743601  Biso 1.000000     C
    C   1.0     0.578562     0.484081     0.720008  Biso 1.000000     C
    C   1.0     0.798895     0.453272     0.907728  Biso 1.000000     C
    C   1.0     0.775692     0.577637     0.980453  Biso 1.000000     C
    C   1.0     0.470233     0.279574     0.023093  Biso 1.000000     C
    C   1.0     0.529795     0.309454     0.907841  Biso 1.000000     C
    C   1.0     0.968192     0.084780     0.255684  Biso 1.000000     C
    C   1.0     0.922481     0.986662     0.279488  Biso 1.000000     C
    C   1.0     0.700356     0.953373     0.092621  Biso 1.000000     C
    C   1.0     0.724403     0.078556     0.020896  Biso 1.000000     C
    C   1.0     0.030717     0.780311     0.977480  Biso 1.000000     C
    C   1.0     0.970152     0.809533     0.092456  Biso 1.000000     C
    C   1.0     0.034852     0.416011     0.756147  Biso 1.000000     C
    C   1.0     0.078200     0.515230     0.779722  Biso 1.000000     C
    C   1.0     0.300031     0.546689     0.592558  Biso 1.000000     C
    C   1.0     0.275422     0.421985     0.520236  Biso 1.000000     C
    C   1.0     0.969998     0.719869     0.477292  Biso 1.000000     C
    C   1.0     0.029806     0.690511     0.592472  Biso 1.000000     C
    C   1.0     0.533413     0.084920     0.755895  Biso 1.000000     C
    C   1.0     0.578005     0.986737     0.779686  Biso 1.000000     C
    C   1.0     0.798595     0.953461     0.592223  Biso 1.000000     C
    C   1.0     0.775816     0.078226     0.520021  Biso 1.000000     C
    C   1.0     0.469243     0.779812     0.477297  Biso 1.000000     C
    C   1.0     0.529512     0.809579     0.592410  Biso 1.000000     C
    C   1.0     0.463365     0.416408     0.256400  Biso 1.000000     C
    C   1.0     0.421463     0.515896     0.279993  Biso 1.000000     C
    C   1.0     0.201130     0.546705     0.092275  Biso 1.000000     C
    C   1.0     0.224333     0.422341     0.019550  Biso 1.000000     C
    C   1.0     0.529788     0.720405     0.976907  Biso 1.000000     C
    C   1.0     0.470228     0.690525     0.092160  Biso 1.000000     C
    C   1.0     0.031845     0.915196     0.744317  Biso 1.000000     C
    C   1.0     0.077541     0.013321     0.720515  Biso 1.000000     C
    C   1.0     0.299668     0.046612     0.907386  Biso 1.000000     C
    C   1.0     0.275620     0.921429     0.979111  Biso 1.000000     C
    C   1.0     0.969302     0.219669     0.022519  Biso 1.000000     C
    C   1.0     0.029868     0.190447     0.907544  Biso 1.000000     C
    C   1.0     0.965178     0.583969     0.243853  Biso 1.000000     C
    C   1.0     0.921824     0.484752     0.220279  Biso 1.000000     C
    C   1.0     0.699989     0.453292     0.407442  Biso 1.000000     C
    C   1.0     0.724597     0.578000     0.479760  Biso 1.000000     C
    C   1.0     0.030011     0.280111     0.522710  Biso 1.000000     C
    C   1.0     0.970208     0.309469     0.407529  Biso 1.000000     C
    N   1.0     0.273177     0.980088     0.428025  Biso 1.000000     N
    N   1.0     0.129059     0.948429     0.492089  Biso 1.000000     N
    N   1.0     0.113717     0.029636     0.446135  Biso 1.000000     N
    N   1.0     0.217589     0.121301     0.357761  Biso 1.000000     N
    N   1.0     0.524471     0.123632     0.515904  Biso 1.000000     N
    N   1.0     0.485017     0.105683     0.441070  Biso 1.000000     N
    N   1.0     0.497317     0.264111     0.455562  Biso 1.000000     N
    N   1.0     0.571293     0.265439     0.586214  Biso 1.000000     N
    N   1.0     0.726919     0.519341     0.928276  Biso 1.000000     N
    N   1.0     0.870941     0.551214     0.992437  Biso 1.000000     N
    N   1.0     0.886572     0.470320     0.946116  Biso 1.000000     N
    N   1.0     0.783023     0.378620     0.857444  Biso 1.000000     N
    N   1.0     0.476099     0.376166     0.016373  Biso 1.000000     N
    N   1.0     0.515113     0.394170     0.941393  Biso 1.000000     N
    N   1.0     0.503572     0.235738     0.955830  Biso 1.000000     N
    N   1.0     0.430288     0.233950     0.086534  Biso 1.000000     N
    N   1.0     0.772731     0.019880     0.072631  Biso 1.000000     N
    N   1.0     0.629010     0.052020     0.008706  Biso 1.000000     N
    N   1.0     0.612794     0.970608     0.054363  Biso 1.000000     N
    N   1.0     0.715902     0.878258     0.142290  Biso 1.000000     N
    N   1.0     0.024156     0.876762     0.984204  Biso 1.000000     N
    N   1.0     0.984391     0.894380     0.058919  Biso 1.000000     N
    N   1.0     0.997404     0.736055     0.044604  Biso 1.000000     N
    N   1.0     0.071390     0.735391     0.913964  Biso 1.000000     N
    N   1.0     0.227365     0.480619     0.572197  Biso 1.000000     N
    N   1.0     0.370930     0.448209     0.508239  Biso 1.000000     N
    N   1.0     0.387519     0.529268     0.554307  Biso 1.000000     N
    N   1.0     0.284838     0.621651     0.642529  Biso 1.000000     N
    N   1.0     0.976271     0.623363     0.483881  Biso 1.000000     N
    N   1.0     0.015539     0.605672     0.558787  Biso 1.000000     N
    N   1.0     0.003094     0.764015     0.544596  Biso 1.000000     N
    N   1.0     0.929813     0.765123     0.413828  Biso 1.000000     N
    N   1.0     0.726850     0.019893     0.571977  Biso 1.000000     N
    N   1.0     0.870968     0.051552     0.507914  Biso 1.000000     N
    N   1.0     0.886310     0.970346     0.553869  Biso 1.000000     N
    N   1.0     0.782438     0.878680     0.642242  Biso 1.000000     N
    N   1.0     0.475551     0.876347     0.484097  Biso 1.000000     N
    N   1.0     0.515005     0.894297     0.558932  Biso 1.000000     N
    N   1.0     0.502697     0.735869     0.544442  Biso 1.000000     N
    N   1.0     0.428720     0.734541     0.413790  Biso 1.000000     N
    N   1.0     0.273106     0.480635     0.071728  Biso 1.000000     N
    N   1.0     0.129085     0.448765     0.007565  Biso 1.000000     N
    N   1.0     0.113454     0.529658     0.053886  Biso 1.000000     N
    N   1.0     0.217002     0.621355     0.142562  Biso 1.000000     N
    N   1.0     0.523924     0.623813     0.983627  Biso 1.000000     N
    N   1.0     0.484910     0.605809     0.058607  Biso 1.000000     N
    N   1.0     0.496449     0.764241     0.044169  Biso 1.000000     N
    N   1.0     0.569730     0.766030     0.913465  Biso 1.000000     N
    N   1.0     0.227291     0.980107     0.927377  Biso 1.000000     N
    N   1.0     0.371015     0.947962     0.991298  Biso 1.000000     N
    N   1.0     0.387231     0.029373     0.945641  Biso 1.000000     N
    N   1.0     0.284120     0.121730     0.857720  Biso 1.000000     N
    N   1.0     0.975864     0.123217     0.015796  Biso 1.000000     N
    N   1.0     0.015629     0.105600     0.941081  Biso 1.000000     N
    N   1.0     0.002616     0.263925     0.955397  Biso 1.000000     N
    N   1.0     0.928628     0.264588     0.086036  Biso 1.000000     N
    N   1.0     0.772654     0.519366     0.427799  Biso 1.000000     N
    N   1.0     0.629090     0.551774     0.491760  Biso 1.000000     N
    N   1.0     0.612502     0.470711     0.445694  Biso 1.000000     N
    N   1.0     0.715182     0.378329     0.357471  Biso 1.000000     N
    N   1.0     0.023741     0.376618     0.516120  Biso 1.000000     N
    N   1.0     0.984475     0.394308     0.441214  Biso 1.000000     N
    N   1.0     0.996918     0.235965     0.455406  Biso 1.000000     N
    N   1.0     0.070191     0.234857     0.586176  Biso 1.000000     N
    O   1.0     0.475240     0.895331     0.316709  Biso 1.000000     O
    O   1.0     0.394864     0.067039     0.276128  Biso 1.000000     O
    O   1.0     0.493418     0.858361     0.189761  Biso 1.000000     O
    O   1.0     0.417824     0.029508     0.146892  Biso 1.000000     O
    O   1.0     0.529016     0.604314     0.816110  Biso 1.000000     O
    O   1.0     0.604886     0.430118     0.775940  Biso 1.000000     O
    O   1.0     0.510962     0.640727     0.689284  Biso 1.000000     O
    O   1.0     0.581691     0.467210     0.646684  Biso 1.000000     O
    O   1.0     0.976881     0.104506     0.183074  Biso 1.000000     O
    O   1.0     0.893482     0.933289     0.223753  Biso 1.000000     O
    O   1.0     0.995624     0.141445     0.310052  Biso 1.000000     O
    O   1.0     0.919494     0.969972     0.352870  Biso 1.000000     O
    O   1.0     0.026921     0.395506     0.683601  Biso 1.000000     O
    O   1.0     0.106779     0.568280     0.723713  Biso 1.000000     O
    O   1.0     0.008450     0.358983     0.810499  Biso 1.000000     O
    O   1.0     0.080025     0.532900     0.852946  Biso 1.000000     O
    O   1.0     0.524779     0.104643     0.683292  Biso 1.000000     O
    O   1.0     0.605173     0.932942     0.723875  Biso 1.000000     O
    O   1.0     0.506601     0.141613     0.810240  Biso 1.000000     O
    O   1.0     0.582212     0.970475     0.853110  Biso 1.000000     O
    O   1.0     0.471010     0.395663     0.183891  Biso 1.000000     O
    O   1.0     0.395145     0.569861     0.224060  Biso 1.000000     O
    O   1.0     0.489062     0.359250     0.310716  Biso 1.000000     O
    O   1.0     0.418338     0.532769     0.353316  Biso 1.000000     O
    O   1.0     0.023139     0.895476     0.816926  Biso 1.000000     O
    O   1.0     0.106554     0.066686     0.776250  Biso 1.000000     O
    O   1.0     0.004397     0.858538     0.689948  Biso 1.000000     O
    O   1.0     0.080543     0.030007     0.647132  Biso 1.000000     O
    O   1.0     0.973105     0.604476     0.316400  Biso 1.000000     O
    O   1.0     0.893248     0.431703     0.276289  Biso 1.000000     O
    O   1.0     0.991576     0.640998     0.189501  Biso 1.000000     O
    O   1.0     0.920005     0.467078     0.147055  Biso 1.000000     O
   Zn   1.0     0.426117     0.979607     0.406487  Biso 1.000000    Zn
   Zn   1.0     0.476187     0.908418     0.073221  Biso 1.000000    Zn
   Zn   1.0     0.574065     0.520086     0.906662  Biso 1.000000    Zn
   Zn   1.0     0.523982     0.591586     0.573109  Biso 1.000000    Zn
   Zn   1.0     0.925178     0.020094     0.093642  Biso 1.000000    Zn
   Zn   1.0     0.977794     0.091477     0.426719  Biso 1.000000    Zn
   Zn   1.0     0.075037     0.480145     0.593545  Biso 1.000000    Zn
   Zn   1.0     0.022359     0.408450     0.926818  Biso 1.000000    Zn
   Zn   1.0     0.573910     0.020372     0.593513  Biso 1.000000    Zn
   Zn   1.0     0.523840     0.091560     0.926779  Biso 1.000000    Zn
   Zn   1.0     0.425961     0.479892     0.093339  Biso 1.000000    Zn
   Zn   1.0     0.476042     0.408393     0.426892  Biso 1.000000    Zn
   Zn   1.0     0.074847     0.979886     0.906358  Biso 1.000000    Zn
   Zn   1.0     0.022233     0.908502     0.573282  Biso 1.000000    Zn
   Zn   1.0     0.924986     0.519836     0.406454  Biso 1.000000    Zn
   Zn   1.0     0.977668     0.591529     0.073183  Biso 1.000000    Zn
