#======================================================================

# CRYSTAL DATA

#----------------------------------------------------------------------

data_VESTA_phase_1


_pd_phase_name                         MOF
_cell_length_a                         17.17500
_cell_length_b                         17.17400
_cell_length_c                         32.68900
_cell_angle_alpha                      87.55300
_cell_angle_beta                       87.54800
_cell_angle_gamma                      70.77100
_symmetry_space_group_name_H-M         "P 1"
_symmetry_Int_Tables_number            1

loop_
_symmetry_equiv_pos_as_xyz
   "x, y, z"

loop_
   _atom_site_label
   _atom_site_occupancy
   _atom_site_fract_x
   _atom_site_fract_y
   _atom_site_fract_z
   _atom_site_adp_type
   _atom_site_B_iso_or_equiv
   _atom_site_type_symbol
    H   1.0     0.304469     0.770814     0.289897  Biso 1.000000     H
    H   1.0     0.459709     0.771160     0.295948  Biso 1.000000     H
    H   1.0     0.637786     0.821284     0.417223  Biso 1.000000     H
    H   1.0     0.609497     0.852400     0.496594  Biso 1.000000     H
    H   1.0     0.353091     0.886038     0.601637  Biso 1.000000     H
    H   1.0     0.197932     0.883957     0.595350  Biso 1.000000     H
    H   1.0     0.021000     0.836652     0.475006  Biso 1.000000     H
    H   1.0     0.047900     0.808811     0.394420  Biso 1.000000     H
    H   1.0     0.083594     0.915178     0.325638  Biso 1.000000     H
    H   1.0     0.999405     0.883197     0.272285  Biso 1.000000     H
    H   1.0     0.147326     0.627063     0.280752  Biso 1.000000     H
    H   1.0     0.231852     0.658985     0.333738  Biso 1.000000     H
    H   1.0     0.000000     0.645916     0.209213  Biso 1.000000     H
    H   1.0     0.504778     0.906445     0.312266  Biso 1.000000     H
    H   1.0     0.620610     0.890757     0.263776  Biso 1.000000     H
    H   1.0     0.762723     0.668703     0.329333  Biso 1.000000     H
    H   1.0     0.643255     0.685361     0.378290  Biso 1.000000     H
    H   1.0     0.722222     0.870354     0.236031  Biso 1.000000     H
    H   1.0     0.422869     0.000000     0.564183  Biso 1.000000     H
    H   1.0     0.503711     0.022426     0.621874  Biso 1.000000     H
    H   1.0     0.654905     0.767704     0.617679  Biso 1.000000     H
    H   1.0     0.573458     0.747727     0.559903  Biso 1.000000     H
    H   1.0     0.029946     0.995136     0.531422  Biso 1.000000     H
    H   1.0     0.914256     0.000000     0.581192  Biso 1.000000     H
    H   1.0     0.024993     0.746491     0.613538  Biso 1.000000     H
    H   1.0     0.138889     0.736588     0.561606  Biso 1.000000     H
    H   1.0     0.236307     0.000000     0.408443  Biso 1.000000     H
    H   1.0     0.290151     0.102864     0.433896  Biso 1.000000     H
    H   1.0     0.349269     0.024169     0.467855  Biso 1.000000     H
    H   1.0     0.159551     0.096270     0.472282  Biso 1.000000     H
    H   1.0     0.223325     0.025760     0.508295  Biso 1.000000     H
    H   1.0     0.218766     0.190944     0.492429  Biso 1.000000     H
    H   1.0     0.770794     0.304474     0.789895  Biso 1.000000     H
    H   1.0     0.771151     0.459719     0.795958  Biso 1.000000     H
    H   1.0     0.821291     0.637789     0.917237  Biso 1.000000     H
    H   1.0     0.852404     0.609500     0.996606  Biso 1.000000     H
    H   1.0     0.886098     0.353060     0.101641  Biso 1.000000     H
    H   1.0     0.884010     0.197894     0.095340  Biso 1.000000     H
    H   1.0     0.836653     0.020976     0.974987  Biso 1.000000     H
    H   1.0     0.808813     0.047869     0.894404  Biso 1.000000     H
    H   1.0     0.915126     0.083583     0.825601  Biso 1.000000     H
    H   1.0     0.883103     0.999403     0.772253  Biso 1.000000     H
    H   1.0     0.626994     0.147333     0.780779  Biso 1.000000     H
    H   1.0     0.658955     0.231855     0.833758  Biso 1.000000     H
    H   1.0     0.645838     0.000000     0.709219  Biso 1.000000     H
    H   1.0     0.906442     0.504778     0.812272  Biso 1.000000     H
    H   1.0     0.890750     0.620613     0.763784  Biso 1.000000     H
    H   1.0     0.668714     0.762740     0.829359  Biso 1.000000     H
    H   1.0     0.685380     0.643275     0.878317  Biso 1.000000     H
    H   1.0     0.870329     0.722225     0.736032  Biso 1.000000     H
    H   1.0     0.000000     0.422875     0.064180  Biso 1.000000     H
    H   1.0     0.022464     0.503739     0.121863  Biso 1.000000     H
    H   1.0     0.767741     0.654920     0.117700  Biso 1.000000     H
    H   1.0     0.747760     0.573446     0.059932  Biso 1.000000     H
    H   1.0     0.995162     0.029974     0.031436  Biso 1.000000     H
    H   1.0     0.000000     0.914308     0.081219  Biso 1.000000     H
    H   1.0     0.746488     0.024973     0.113513  Biso 1.000000     H
    H   1.0     0.736589     0.138844     0.061566  Biso 1.000000     H
    H   1.0     0.000000     0.236297     0.908432  Biso 1.000000     H
    H   1.0     0.102834     0.290145     0.933889  Biso 1.000000     H
    H   1.0     0.024133     0.349270     0.967851  Biso 1.000000     H
    H   1.0     0.096236     0.159535     0.972265  Biso 1.000000     H
    H   1.0     0.025720     0.223311     0.008285  Biso 1.000000     H
    H   1.0     0.190880     0.218764     0.992430  Biso 1.000000     H
    H   1.0     0.229167     0.695505     0.210108  Biso 1.000000     H
    H   1.0     0.228812     0.540260     0.204046  Biso 1.000000     H
    H   1.0     0.178678     0.362187     0.082766  Biso 1.000000     H
    H   1.0     0.147566     0.390473     0.003397  Biso 1.000000     H
    H   1.0     0.113870     0.646917     0.898360  Biso 1.000000     H
    H   1.0     0.115958     0.802082     0.904662  Biso 1.000000     H
    H   1.0     0.163311     0.979001     0.025016  Biso 1.000000     H
    H   1.0     0.191151     0.952107     0.105599  Biso 1.000000     H
    H   1.0     0.084841     0.916394     0.174401  Biso 1.000000     H
    H   1.0     0.116862     0.000577     0.227747  Biso 1.000000     H
    H   1.0     0.372972     0.852649     0.219225  Biso 1.000000     H
    H   1.0     0.341013     0.768122     0.166247  Biso 1.000000     H
    H   1.0     0.354132    -0.000745     0.290775  Biso 1.000000     H
    H   1.0     0.093531     0.495203     0.187731  Biso 1.000000     H
    H   1.0     0.109221     0.379367     0.236218  Biso 1.000000     H
    H   1.0     0.331255     0.237238     0.170642  Biso 1.000000     H
    H   1.0     0.314592     0.356706     0.121685  Biso 1.000000     H
    H   1.0     0.129646     0.277767     0.263973  Biso 1.000000     H
    H   1.0    -0.003335     0.577099     0.935822  Biso 1.000000     H
    H   1.0     0.977505     0.496241     0.878137  Biso 1.000000     H
    H   1.0     0.232227     0.345057     0.882299  Biso 1.000000     H
    H   1.0     0.252209     0.426525     0.940070  Biso 1.000000     H
    H   1.0     0.004811     0.970010     0.968571  Biso 1.000000     H
    H   1.0    -0.003895     0.085675     0.918787  Biso 1.000000     H
    H   1.0     0.253481     0.975001     0.886486  Biso 1.000000     H
    H   1.0     0.263380     0.861130     0.938432  Biso 1.000000     H
    H   1.0    -0.010455     0.763686     0.091564  Biso 1.000000     H
    H   1.0     0.897143     0.709844     0.066113  Biso 1.000000     H
    H   1.0     0.975835     0.650717     0.032147  Biso 1.000000     H
    H   1.0     0.903734     0.840452     0.027735  Biso 1.000000     H
    H   1.0     0.974245     0.776677     0.991712  Biso 1.000000     H
    H   1.0     0.809086     0.781221     0.007572  Biso 1.000000     H
    H   1.0     0.695502     0.229163     0.710105  Biso 1.000000     H
    H   1.0     0.540263     0.228816     0.704054  Biso 1.000000     H
    H   1.0     0.362188     0.178687     0.582779  Biso 1.000000     H
    H   1.0     0.390475     0.147571     0.503408  Biso 1.000000     H
    H   1.0     0.646882     0.113939     0.398363  Biso 1.000000     H
    H   1.0     0.802041     0.116020     0.404651  Biso 1.000000     H
    H   1.0     0.978971     0.163328     0.524996  Biso 1.000000     H
    H   1.0     0.952069     0.191170     0.605582  Biso 1.000000     H
    H   1.0     0.916373     0.084801     0.674364  Biso 1.000000     H
    H   1.0     0.000563     0.116781     0.727717  Biso 1.000000     H
    H   1.0     0.852643     0.372915     0.719251  Biso 1.000000     H
    H   1.0     0.768116     0.340995     0.666266  Biso 1.000000     H
    H   1.0    -0.000764     0.354069     0.790784  Biso 1.000000     H
    H   1.0     0.495193     0.093533     0.687735  Biso 1.000000     H
    H   1.0     0.379359     0.109223     0.736224  Biso 1.000000     H
    H   1.0     0.237250     0.331278     0.670668  Biso 1.000000     H
    H   1.0     0.356720     0.314620     0.621711  Biso 1.000000     H
    H   1.0     0.277752     0.129633     0.763972  Biso 1.000000     H
    H   1.0     0.577101    -0.003299     0.435816  Biso 1.000000     H
    H   1.0     0.496257     0.977556     0.378126  Biso 1.000000     H
    H   1.0     0.345064     0.232278     0.382323  Biso 1.000000     H
    H   1.0     0.426512     0.252251     0.440099  Biso 1.000000     H
    H   1.0     0.970025     0.004843     0.468577  Biso 1.000000     H
    H   1.0     0.085717    -0.003869     0.418809  Biso 1.000000     H
    H   1.0     0.974984     0.253492     0.386467  Biso 1.000000     H
    H   1.0     0.861087     0.263393     0.438397  Biso 1.000000     H
    H   1.0     0.763666    -0.010469     0.591552  Biso 1.000000     H
    H   1.0     0.709823     0.897126     0.566106  Biso 1.000000     H
    H   1.0     0.650703     0.975813     0.532144  Biso 1.000000     H
    H   1.0     0.840422     0.903709     0.527717  Biso 1.000000     H
    H   1.0     0.776650     0.974217     0.491702  Biso 1.000000     H
    H   1.0     0.781205     0.809034     0.507572  Biso 1.000000     H
    C   1.0     0.171425     0.823010     0.405364  Biso 1.000000     C
    C   1.0     0.211103     0.806732     0.366477  Biso 1.000000     C
    C   1.0     0.293074     0.802078     0.356728  Biso 1.000000     C
    C   1.0     0.333011     0.782921     0.316793  Biso 1.000000     C
    C   1.0     0.411764     0.783726     0.319819  Biso 1.000000     C
    C   1.0     0.420541     0.803962     0.361573  Biso 1.000000     C
    C   1.0     0.494124     0.807793     0.377663  Biso 1.000000     C
    C   1.0     0.505747     0.821300     0.418929  Biso 1.000000     C
    C   1.0     0.581219     0.826945     0.434751  Biso 1.000000     C
    C   1.0     0.566767     0.842796     0.475460  Biso 1.000000     C
    C   1.0     0.482462     0.846811     0.484940  Biso 1.000000     C
    C   1.0     0.443187     0.862767     0.523867  Biso 1.000000     C
    C   1.0     0.360805     0.867890     0.533447  Biso 1.000000     C
    C   1.0     0.322990     0.879125     0.574182  Biso 1.000000     C
    C   1.0     0.244407     0.877752     0.571034  Biso 1.000000     C
    C   1.0     0.233673     0.865464     0.528405  Biso 1.000000     C
    C   1.0     0.161003     0.859412     0.512673  Biso 1.000000     C
    C   1.0     0.149124     0.846041     0.471586  Biso 1.000000     C
    C   1.0     0.075548     0.835011     0.456545  Biso 1.000000     C
    C   1.0     0.089243     0.820838     0.415596  Biso 1.000000     C
    C   1.0     0.162673     0.789007     0.333419  Biso 1.000000     C
    C   1.0     0.097102     0.852091     0.315809  Biso 1.000000     C
    C   1.0     0.050215     0.834486     0.286097  Biso 1.000000     C
    C   1.0     0.067717     0.753167     0.273572  Biso 1.000000     C
    C   1.0     0.133842     0.689982     0.290670  Biso 1.000000     C
    C   1.0     0.180892     0.708004     0.320133  Biso 1.000000     C
    C   1.0     0.016496     0.734902     0.242556  Biso 1.000000     C
    C   1.0     0.565660     0.796866     0.348544  Biso 1.000000     C
    C   1.0     0.560945     0.853824     0.315743  Biso 1.000000     C
    C   1.0     0.627845     0.844526     0.288636  Biso 1.000000     C
    C   1.0     0.701263     0.777860     0.293356  Biso 1.000000     C
    C   1.0     0.705909     0.720595     0.326008  Biso 1.000000     C
    C   1.0     0.639260     0.730197     0.353171  Biso 1.000000     C
    C   1.0     0.774935     0.763243     0.265966  Biso 1.000000     C
    C   1.0     0.492494     0.874111     0.558194  Biso 1.000000     C
    C   1.0     0.472924     0.951219     0.576234  Biso 1.000000     C
    C   1.0     0.517859     0.962106     0.608659  Biso 1.000000     C
    C   1.0     0.583636     0.896044     0.623781  Biso 1.000000     C
    C   1.0     0.603565     0.818786     0.605884  Biso 1.000000     C
    C   1.0     0.558387     0.807986     0.573522  Biso 1.000000     C
    C   1.0     0.634785     0.909471     0.656738  Biso 1.000000     C
    C   1.0     0.091428     0.864998     0.542758  Biso 1.000000     C
    C   1.0     0.028044     0.940124     0.548687  Biso 1.000000     C
    C   1.0     0.963403     0.945346     0.576803  Biso 1.000000     C
    C   1.0     0.962266     0.875415     0.600288  Biso 1.000000     C
    C   1.0     0.026087     0.800266     0.594902  Biso 1.000000     C
    C   1.0     0.089535     0.795039     0.566086  Biso 1.000000     C
    C   1.0     0.894631     0.881670     0.631092  Biso 1.000000     C
    C   1.0     0.288928     0.049478     0.453596  Biso 1.000000     C
    C   1.0     0.220447     0.076954     0.486503  Biso 1.000000     C
    C   1.0     0.823005     0.171407     0.905351  Biso 1.000000     C
    C   1.0     0.806717     0.211092     0.866467  Biso 1.000000     C
    C   1.0     0.802060     0.293070     0.856725  Biso 1.000000     C
    C   1.0     0.782905     0.333013     0.816793  Biso 1.000000     C
    C   1.0     0.783711     0.411769     0.819824  Biso 1.000000     C
    C   1.0     0.803954     0.420542     0.861578  Biso 1.000000     C
    C   1.0     0.807793     0.494126     0.877671  Biso 1.000000     C
    C   1.0     0.821285     0.505750     0.918939  Biso 1.000000     C
    C   1.0     0.826946     0.581221     0.934763  Biso 1.000000     C
    C   1.0     0.842793     0.566770     0.975471  Biso 1.000000     C
    C   1.0     0.846806     0.482460     0.984946  Biso 1.000000     C
    C   1.0     0.862786     0.443183     0.023879  Biso 1.000000     C
    C   1.0     0.867920     0.360794     0.033453  Biso 1.000000     C
    C   1.0     0.879168     0.322967     0.074184  Biso 1.000000     C
    C   1.0     0.877796     0.244379     0.071030  Biso 1.000000     C
    C   1.0     0.865489     0.233657     0.028402  Biso 1.000000     C
    C   1.0     0.859428     0.160989     0.012664  Biso 1.000000     C
    C   1.0     0.846044     0.149103     0.971569  Biso 1.000000     C
    C   1.0     0.835010     0.075525     0.956528  Biso 1.000000     C
    C   1.0     0.820837     0.089219     0.915580  Biso 1.000000     C
    C   1.0     0.788970     0.162667     0.833411  Biso 1.000000     C
    C   1.0     0.852036     0.097093     0.815786  Biso 1.000000     C
    C   1.0     0.834409     0.050211     0.786076  Biso 1.000000     C
    C   1.0     0.753086     0.067720     0.773569  Biso 1.000000     C
    C   1.0     0.689917     0.133847     0.790683  Biso 1.000000     C
    C   1.0     0.707962     0.180894     0.820142  Biso 1.000000     C
    C   1.0     0.734807     0.016501     0.742554  Biso 1.000000     C
    C   1.0     0.796864     0.565667     0.848556  Biso 1.000000     C
    C   1.0     0.853822     0.560948     0.815753  Biso 1.000000     C
    C   1.0     0.844523     0.627850     0.788647  Biso 1.000000     C
    C   1.0     0.777851     0.701267     0.793366  Biso 1.000000     C
    C   1.0     0.720602     0.705922     0.826027  Biso 1.000000     C
    C   1.0     0.730210     0.639277     0.853193  Biso 1.000000     C
    C   1.0     0.763228     0.774940     0.765977  Biso 1.000000     C
    C   1.0     0.874140     0.492493     0.058205  Biso 1.000000     C
    C   1.0     0.951247     0.472932     0.076236  Biso 1.000000     C
    C   1.0     0.962139     0.517877     0.108658  Biso 1.000000     C
    C   1.0     0.896078     0.583653     0.123789  Biso 1.000000     C
    C   1.0     0.818820     0.603575     0.105901  Biso 1.000000     C
    C   1.0     0.808018     0.558387     0.073542  Biso 1.000000     C
    C   1.0     0.909506     0.634819     0.156741  Biso 1.000000     C
    C   1.0     0.865014     0.091418     0.042750  Biso 1.000000     C
    C   1.0     0.940145     0.028057     0.048691  Biso 1.000000     C
    C   1.0     0.945363     0.963439     0.076816  Biso 1.000000     C
    C   1.0     0.875428     0.962298     0.100295  Biso 1.000000     C
    C   1.0     0.800271     0.026077     0.094885  Biso 1.000000     C
    C   1.0     0.795043     0.089508     0.066060  Biso 1.000000     C
    C   1.0     0.881659     0.894660     0.131092  Biso 1.000000     C
    C   1.0     0.049445     0.288925     0.953589  Biso 1.000000     C
    C   1.0     0.076906     0.220435     0.986489  Biso 1.000000     C
    C   1.0     0.176969     0.828565     0.094650  Biso 1.000000     C
    C   1.0     0.193255     0.788883     0.133535  Biso 1.000000     C
    C   1.0     0.197908     0.706907     0.143277  Biso 1.000000     C
    C   1.0     0.217060     0.666965     0.183210  Biso 1.000000     C
    C   1.0     0.216254     0.588208     0.180179  Biso 1.000000     C
    C   1.0     0.196019     0.579433     0.138424  Biso 1.000000     C
    C   1.0     0.192181     0.505850     0.122330  Biso 1.000000     C
    C   1.0     0.178687     0.494224     0.081063  Biso 1.000000     C
    C   1.0     0.173026     0.418754     0.065239  Biso 1.000000     C
    C   1.0     0.157179     0.433204     0.024531  Biso 1.000000     C
    C   1.0     0.153170     0.517511     0.015054  Biso 1.000000     C
    C   1.0     0.137185     0.556791     0.976122  Biso 1.000000     C
    C   1.0     0.132056     0.639179     0.966547  Biso 1.000000     C
    C   1.0     0.120803     0.677008     0.925817  Biso 1.000000     C
    C   1.0     0.122175     0.755595     0.928972  Biso 1.000000     C
    C   1.0     0.134484     0.766317     0.971599  Biso 1.000000     C
    C   1.0     0.140545     0.838985     0.987338  Biso 1.000000     C
    C   1.0     0.153931     0.850868     0.028433  Biso 1.000000     C
    C   1.0     0.164958     0.924449     0.043475  Biso 1.000000     C
    C   1.0     0.179130     0.910756     0.084422  Biso 1.000000     C
    C   1.0     0.210998     0.837310     0.166592  Biso 1.000000     C
    C   1.0     0.147931     0.902884     0.184217  Biso 1.000000     C
    C   1.0     0.165557     0.949770     0.213925  Biso 1.000000     C
    C   1.0     0.246880     0.932263     0.226432  Biso 1.000000     C
    C   1.0     0.310049     0.866133     0.209321  Biso 1.000000     C
    C   1.0     0.292006     0.819086     0.179861  Biso 1.000000     C
    C   1.0     0.265158     0.983488     0.257444  Biso 1.000000     C
    C   1.0     0.203105     0.434311     0.151445  Biso 1.000000     C
    C   1.0     0.146148     0.439031     0.184249  Biso 1.000000     C
    C   1.0     0.155447     0.372130     0.211355  Biso 1.000000     C
    C   1.0     0.222119     0.298713     0.206634  Biso 1.000000     C
    C   1.0     0.279368     0.294057     0.173974  Biso 1.000000     C
    C   1.0     0.269762     0.360702     0.146809  Biso 1.000000     C
    C   1.0     0.236736     0.225038     0.234021  Biso 1.000000     C
    C   1.0     0.125831     0.507482     0.941796  Biso 1.000000     C
    C   1.0     0.048723     0.527042     0.923766  Biso 1.000000     C
    C   1.0     0.037830     0.482101     0.891342  Biso 1.000000     C
    C   1.0     0.103891     0.416328     0.876209  Biso 1.000000     C
    C   1.0     0.181148     0.396401     0.894098  Biso 1.000000     C
    C   1.0     0.191951     0.441586     0.926459  Biso 1.000000     C
    C   1.0     0.090463     0.365168     0.843254  Biso 1.000000     C
    C   1.0     0.134958     0.908558     0.957252  Biso 1.000000     C
    C   1.0     0.059827     0.971923     0.951313  Biso 1.000000     C
    C   1.0     0.054609     0.036542     0.923188  Biso 1.000000     C
    C   1.0     0.124542     0.037680     0.899707  Biso 1.000000     C
    C   1.0     0.199699     0.973898     0.905115  Biso 1.000000     C
    C   1.0     0.204927     0.910468     0.933940  Biso 1.000000     C
    C   1.0     0.118313     0.105318     0.868909  Biso 1.000000     C
    C   1.0     0.950526     0.711063     0.046409  Biso 1.000000     C
    C   1.0     0.923060     0.779554     0.013509  Biso 1.000000     C
    C   1.0     0.828543     0.176975     0.594636  Biso 1.000000     C
    C   1.0     0.788866     0.193250     0.633524  Biso 1.000000     C
    C   1.0     0.706895     0.197905     0.643272  Biso 1.000000     C
    C   1.0     0.666959     0.217058     0.683208  Biso 1.000000     C
    C   1.0     0.588206     0.216254     0.680182  Biso 1.000000     C
    C   1.0     0.579430     0.196017     0.638428  Biso 1.000000     C
    C   1.0     0.505847     0.192187     0.622338  Biso 1.000000     C
    C   1.0     0.494223     0.178682     0.581072  Biso 1.000000     C
    C   1.0     0.418753     0.173029     0.565250  Biso 1.000000     C
    C   1.0     0.433204     0.157181     0.524541  Biso 1.000000     C
    C   1.0     0.517508     0.153170     0.515060  Biso 1.000000     C
    C   1.0     0.556783     0.137215     0.476133  Biso 1.000000     C
    C   1.0     0.639165     0.132091     0.466553  Biso 1.000000     C
    C   1.0     0.676982     0.120854     0.425818  Biso 1.000000     C
    C   1.0     0.755565     0.122227     0.428966  Biso 1.000000     C
    C   1.0     0.766296     0.134521     0.471595  Biso 1.000000     C
    C   1.0     0.838968     0.140567     0.487328  Biso 1.000000     C
    C   1.0     0.850845     0.153944     0.528415  Biso 1.000000     C
    C   1.0     0.924422     0.164971     0.543456  Biso 1.000000     C
    C   1.0     0.910726     0.179144     0.584405  Biso 1.000000     C
    C   1.0     0.837296     0.210973     0.666583  Biso 1.000000     C
    C   1.0     0.902866     0.147887     0.684193  Biso 1.000000     C
    C   1.0     0.949753     0.165493     0.713905  Biso 1.000000     C
    C   1.0     0.932252     0.246811     0.726430  Biso 1.000000     C
    C   1.0     0.866126     0.309996     0.709333  Biso 1.000000     C
    C   1.0     0.819076     0.291976     0.679870  Biso 1.000000     C
    C   1.0     0.983479     0.265075     0.757443  Biso 1.000000     C
    C   1.0     0.434311     0.203115     0.651457  Biso 1.000000     C
    C   1.0     0.439027     0.146156     0.684258  Biso 1.000000     C
    C   1.0     0.372125     0.155452     0.711364  Biso 1.000000     C
    C   1.0     0.298708     0.222120     0.706644  Biso 1.000000     C
    C   1.0     0.294064     0.279386     0.673993  Biso 1.000000     C
    C   1.0     0.360712     0.269783     0.646830  Biso 1.000000     C
    C   1.0     0.225033     0.236738     0.734032  Biso 1.000000     C
    C   1.0     0.507474     0.125867     0.441808  Biso 1.000000     C
    C   1.0     0.527045     0.048761     0.423765  Biso 1.000000     C
    C   1.0     0.482109     0.037875     0.391341  Biso 1.000000     C
    C   1.0     0.416333     0.103938     0.376218  Biso 1.000000     C
    C   1.0     0.396404     0.181195     0.394117  Biso 1.000000     C
    C   1.0     0.441582     0.191993     0.426479  Biso 1.000000     C
    C   1.0     0.365187     0.090515     0.343258  Biso 1.000000     C
    C   1.0     0.908546     0.134983     0.457244  Biso 1.000000     C
    C   1.0     0.971928     0.059856     0.451313  Biso 1.000000     C
    C   1.0     0.036571     0.054635     0.423198  Biso 1.000000     C
    C   1.0     0.037711     0.124568     0.399716  Biso 1.000000     C
    C   1.0     0.973889     0.199716     0.405103  Biso 1.000000     C
    C   1.0     0.910439     0.204941     0.433917  Biso 1.000000     C
    C   1.0     0.105341     0.118313     0.368908  Biso 1.000000     C
    C   1.0     0.711046     0.950507     0.546402  Biso 1.000000     C
    C   1.0     0.779527     0.923024     0.513495  Biso 1.000000     C
    N   1.0     0.347574     0.814770     0.383325  Biso 1.000000     N
    N   1.0     0.446576     0.834078     0.449981  Biso 1.000000     N
    N   1.0     0.305198     0.860026     0.506151  Biso 1.000000     N
    N   1.0     0.206242     0.838927     0.439827  Biso 1.000000     N
    N   1.0     0.814761     0.347568     0.883323  Biso 1.000000     N
    N   1.0     0.834071     0.446572     0.949986  Biso 1.000000     N
    N   1.0     0.860037     0.305192     0.006155  Biso 1.000000     N
    N   1.0     0.838921     0.206228     0.939814  Biso 1.000000     N
    N   1.0     0.185215     0.652406     0.116678  Biso 1.000000     N
    N   1.0     0.165904     0.553399     0.050015  Biso 1.000000     N
    N   1.0     0.139939     0.694781     0.993845  Biso 1.000000     N
    N   1.0     0.161058     0.793741     0.060187  Biso 1.000000     N
    N   1.0     0.652394     0.185217     0.616675  Biso 1.000000     N
    N   1.0     0.553391     0.165910     0.550019  Biso 1.000000     N
    N   1.0     0.694771     0.139960     0.493848  Biso 1.000000     N
    N   1.0     0.793726     0.161058     0.560174  Biso 1.000000     N
    O   1.0     0.033244     0.657759     0.234272  Biso 1.000000     O
    O   1.0     0.960419     0.794135     0.226125  Biso 1.000000     O
    O   1.0     0.837189     0.703621     0.267354  Biso 1.000000     O
    O   1.0     0.773418     0.823526     0.235735  Biso 1.000000     O
    O   1.0     0.703311     0.850759     0.663327  Biso 1.000000     O
    O   1.0     0.610083     0.976850     0.675323  Biso 1.000000     O
    O   1.0     0.903926     0.824454     0.659167  Biso 1.000000     O
    O   1.0     0.828112     0.943331     0.630408  Biso 1.000000     O
    O   1.0     0.280168     0.986254     0.428723  Biso 1.000000     O
    O   1.0     0.230207     0.141718     0.510153  Biso 1.000000     O
    O   1.0     0.657665     0.033247     0.734279  Biso 1.000000     O
    O   1.0     0.794032     0.960443     0.726109  Biso 1.000000     O
    O   1.0     0.703585     0.837177     0.767355  Biso 1.000000     O
    O   1.0     0.823494     0.773416     0.735735  Biso 1.000000     O
    O   1.0     0.850794     0.703345     0.163334  Biso 1.000000     O
    O   1.0     0.976872     0.610114     0.175328  Biso 1.000000     O
    O   1.0     0.824443     0.903969     0.159169  Biso 1.000000     O
    O   1.0     0.943342     0.828157     0.130421  Biso 1.000000     O
    O   1.0     0.986230     0.280171     0.928712  Biso 1.000000     O
    O   1.0     0.141660     0.230210     0.010157  Biso 1.000000     O
    O   1.0     0.342301     0.966749     0.265716  Biso 1.000000     O
    O   1.0     0.205933     0.039547     0.273888  Biso 1.000000     O
    O   1.0     0.296371     0.162794     0.232639  Biso 1.000000     O
    O   1.0     0.176475     0.226571     0.264267  Biso 1.000000     O
    O   1.0     0.149171     0.296639     0.836660  Biso 1.000000     O
    O   1.0     0.023101     0.389883     0.824663  Biso 1.000000     O
    O   1.0     0.175534     0.096014     0.840835  Biso 1.000000     O
    O   1.0     0.056624     0.171816     0.869576  Biso 1.000000     O
    O   1.0     0.013749     0.719821     0.071280  Biso 1.000000     O
    O   1.0     0.858302     0.769784     0.989842  Biso 1.000000     O
    O   1.0     0.966734     0.342219     0.765725  Biso 1.000000     O
    O   1.0     0.039556     0.205840     0.773873  Biso 1.000000     O
    O   1.0     0.162775     0.296354     0.732639  Biso 1.000000     O
    O   1.0     0.226554     0.176459     0.764266  Biso 1.000000     O
    O   1.0     0.296662     0.149227     0.336667  Biso 1.000000     O
    O   1.0     0.389896     0.023142     0.324669  Biso 1.000000     O
    O   1.0     0.096046     0.175536     0.340837  Biso 1.000000     O
    O   1.0     0.171859     0.056649     0.369589  Biso 1.000000     O
    O   1.0     0.719809     0.013737     0.571269  Biso 1.000000     O
    O   1.0     0.769767     0.858258     0.489846  Biso 1.000000     O
   Zn   1.0     0.321483     0.853326     0.442911  Biso 1.000000    Zn
   Zn   1.0     0.876906     0.792475     0.187253  Biso 1.000000    Zn
   Zn   1.0     0.853314     0.321468     0.942906  Biso 1.000000    Zn
   Zn   1.0     0.792418     0.876901     0.687244  Biso 1.000000    Zn
   Zn   1.0     0.146673     0.678488     0.057091  Biso 1.000000    Zn
   Zn   1.0     0.207546     0.123094     0.312751  Biso 1.000000    Zn
   Zn   1.0     0.678476     0.146674     0.557086  Biso 1.000000    Zn
   Zn   1.0     0.123070     0.207499     0.812743  Biso 1.000000    Zn
