#======================================================================

# CRYSTAL DATA

#----------------------------------------------------------------------

data_VESTA_phase_1


_pd_phase_name                         MOF
_cell_length_a                         13.40600
_cell_length_b                         16.74100
_cell_length_c                         13.13300
_cell_angle_alpha                      89.99300
_cell_angle_beta                       90.00300
_cell_angle_gamma                      90.05300
_symmetry_space_group_name_H-M         "P 1"
_symmetry_Int_Tables_number            1

loop_
_symmetry_equiv_pos_as_xyz
   "x, y, z"

loop_
   _atom_site_label
   _atom_site_occupancy
   _atom_site_fract_x
   _atom_site_fract_y
   _atom_site_fract_z
   _atom_site_adp_type
   _atom_site_B_iso_or_equiv
   _atom_site_type_symbol
    H   1.0     0.340986     0.943498     0.057147  Biso 1.000000     H
    H   1.0     0.840993     0.943542     0.057158  Biso 1.000000     H
    H   1.0     0.090967     0.441210     0.554185  Biso 1.000000     H
    H   1.0     0.590895     0.441090     0.553902  Biso 1.000000     H
    H   1.0     0.160675     0.565842     0.055191  Biso 1.000000     H
    H   1.0     0.660689     0.565929     0.055121  Biso 1.000000     H
    H   1.0     0.410771     0.063951     0.557358  Biso 1.000000     H
    H   1.0     0.910803     0.063868     0.557432  Biso 1.000000     H
    H   1.0     0.161134     0.444675     0.941699  Biso 1.000000     H
    H   1.0     0.661192     0.444740     0.941679  Biso 1.000000     H
    H   1.0     0.410851     0.942613     0.444254  Biso 1.000000     H
    H   1.0     0.910854     0.942546     0.444307  Biso 1.000000     H
    H   1.0     0.341099     0.064750     0.943728  Biso 1.000000     H
    H   1.0     0.841133     0.064823     0.943789  Biso 1.000000     H
    H   1.0     0.090699     0.562646     0.441273  Biso 1.000000     H
    H   1.0     0.590680     0.562523     0.441002  Biso 1.000000     H
    H   1.0     0.160937     0.065469     0.944602  Biso 1.000000     H
    H   1.0     0.660895     0.065496     0.944638  Biso 1.000000     H
    H   1.0     0.410497     0.564300     0.442722  Biso 1.000000     H
    H   1.0     0.910478     0.564161     0.442571  Biso 1.000000     H
    H   1.0     0.341199     0.443434     0.942410  Biso 1.000000     H
    H   1.0     0.841129     0.443488     0.942367  Biso 1.000000     H
    H   1.0     0.090849     0.941398     0.446018  Biso 1.000000     H
    H   1.0     0.590851     0.941436     0.445966  Biso 1.000000     H
    H   1.0     0.340892     0.564628     0.055843  Biso 1.000000     H
    H   1.0     0.840866     0.564651     0.055841  Biso 1.000000     H
    H   1.0     0.090977     0.062739     0.559101  Biso 1.000000     H
    H   1.0     0.591005     0.062785     0.559039  Biso 1.000000     H
    H   1.0     0.161005     0.944200     0.057986  Biso 1.000000     H
    H   1.0     0.660985     0.944247     0.058063  Biso 1.000000     H
    H   1.0     0.410965     0.442874     0.555671  Biso 1.000000     H
    H   1.0     0.910892     0.442714     0.555498  Biso 1.000000     H
    H   1.0     0.251055     0.278648     0.879184  Biso 1.000000     H
    H   1.0     0.751042     0.279385     0.878784  Biso 1.000000     H
    H   1.0     0.000994     0.276633     0.620486  Biso 1.000000     H
    H   1.0     0.501008     0.277537     0.620955  Biso 1.000000     H
    H   1.0     0.000544     0.776485     0.379513  Biso 1.000000     H
    H   1.0     0.500539     0.776509     0.379507  Biso 1.000000     H
    H   1.0     0.250570     0.778556     0.120741  Biso 1.000000     H
    H   1.0     0.750565     0.778598     0.120760  Biso 1.000000     H
    C   1.0     0.410514     0.970510     0.031719  Biso 1.000000     C
    C   1.0     0.910528     0.970539     0.031726  Biso 1.000000     C
    C   1.0     0.160450     0.468415     0.528943  Biso 1.000000     C
    C   1.0     0.660394     0.468291     0.528700  Biso 1.000000     C
    C   1.0     0.091384     0.538305     0.029905  Biso 1.000000     C
    C   1.0     0.591408     0.538360     0.029864  Biso 1.000000     C
    C   1.0     0.341367     0.036369     0.532468  Biso 1.000000     C
    C   1.0     0.841391     0.036320     0.532507  Biso 1.000000     C
    C   1.0     0.091527     0.471236     0.967498  Biso 1.000000     C
    C   1.0     0.591572     0.471276     0.967481  Biso 1.000000     C
    C   1.0     0.341302     0.969148     0.470266  Biso 1.000000     C
    C   1.0     0.841312     0.969104     0.470299  Biso 1.000000     C
    C   1.0     0.410461     0.037628     0.969357  Biso 1.000000     C
    C   1.0     0.910488     0.037670     0.969387  Biso 1.000000     C
    C   1.0     0.160189     0.535677     0.466825  Biso 1.000000     C
    C   1.0     0.660159     0.535556     0.466588  Biso 1.000000     C
    C   1.0     0.091562     0.038037     0.969832  Biso 1.000000     C
    C   1.0     0.591527     0.038044     0.969854  Biso 1.000000     C
    C   1.0     0.341186     0.536587     0.467638  Biso 1.000000     C
    C   1.0     0.841155     0.536455     0.467465  Biso 1.000000     C
    C   1.0     0.410637     0.470561     0.967892  Biso 1.000000     C
    C   1.0     0.910580     0.470582     0.967870  Biso 1.000000     C
    C   1.0     0.160421     0.968473     0.471228  Biso 1.000000     C
    C   1.0     0.660429     0.968488     0.471200  Biso 1.000000     C
    C   1.0     0.410352     0.537642     0.030267  Biso 1.000000     C
    C   1.0     0.910316     0.537649     0.030268  Biso 1.000000     C
    C   1.0     0.160374     0.035698     0.533430  Biso 1.000000     C
    C   1.0     0.660395     0.035715     0.533398  Biso 1.000000     C
    C   1.0     0.091481     0.970904     0.032180  Biso 1.000000     C
    C   1.0     0.591459     0.970926     0.032224  Biso 1.000000     C
    C   1.0     0.341333     0.469332     0.529757  Biso 1.000000     C
    C   1.0     0.841275     0.469193     0.529572  Biso 1.000000     C
    C   1.0     0.001002     0.936503     0.063302  Biso 1.000000     C
    C   1.0     0.500985     0.936504     0.063324  Biso 1.000000     C
    C   1.0     0.000964     0.864185     0.130002  Biso 1.000000     C
    C   1.0     0.500958     0.864187     0.130020  Biso 1.000000     C
    C   1.0     0.250996     0.434539     0.560629  Biso 1.000000     C
    C   1.0     0.750925     0.434422     0.560442  Biso 1.000000     C
    C   1.0     0.251197     0.362292     0.627560  Biso 1.000000     C
    C   1.0     0.751114     0.362227     0.627464  Biso 1.000000     C
    C   1.0     0.000761     0.571774     0.061820  Biso 1.000000     C
    C   1.0     0.500774     0.571800     0.061794  Biso 1.000000     C
    C   1.0     0.000598     0.643207     0.129897  Biso 1.000000     C
    C   1.0     0.500592     0.643225     0.129882  Biso 1.000000     C
    C   1.0     0.250876     0.069991     0.564551  Biso 1.000000     C
    C   1.0     0.750906     0.069974     0.564555  Biso 1.000000     C
    C   1.0     0.250915     0.141858     0.632042  Biso 1.000000     C
    C   1.0     0.750949     0.141834     0.632052  Biso 1.000000     C
    C   1.0     0.001150     0.436682     0.936354  Biso 1.000000     C
    C   1.0     0.501209     0.436682     0.936372  Biso 1.000000     C
    C   1.0     0.001262     0.364295     0.869796  Biso 1.000000     C
    C   1.0     0.501322     0.364280     0.869836  Biso 1.000000     C
    C   1.0     0.250860     0.934513     0.439402  Biso 1.000000     C
    C   1.0     0.750862     0.934500     0.439405  Biso 1.000000     C
    C   1.0     0.250889     0.862321     0.372381  Biso 1.000000     C
    C   1.0     0.750884     0.862309     0.372385  Biso 1.000000     C
    C   1.0     0.001032     0.071690     0.937948  Biso 1.000000     C
    C   1.0     0.500990     0.071663     0.937932  Biso 1.000000     C
    C   1.0     0.000996     0.143216     0.870021  Biso 1.000000     C
    C   1.0     0.500959     0.143173     0.869985  Biso 1.000000     C
    C   1.0     0.250596     0.570095     0.435636  Biso 1.000000     C
    C   1.0     0.750578     0.569989     0.435466  Biso 1.000000     C
    C   1.0     0.250510     0.641917     0.368055  Biso 1.000000     C
    C   1.0     0.750508     0.641872     0.367986  Biso 1.000000     C
    O   1.0     0.085801     0.836115     0.155708  Biso 1.000000     O
    O   1.0     0.585800     0.836126     0.155726  Biso 1.000000     O
    O   1.0     0.336040     0.334346     0.653462  Biso 1.000000     O
    O   1.0     0.835948     0.334288     0.653390  Biso 1.000000     O
    O   1.0     0.415984     0.670869     0.156103  Biso 1.000000     O
    O   1.0     0.915983     0.670870     0.156099  Biso 1.000000     O
    O   1.0     0.166394     0.169846     0.657988  Biso 1.000000     O
    O   1.0     0.666438     0.169821     0.658012  Biso 1.000000     O
    O   1.0     0.416462     0.336031     0.844325  Biso 1.000000     O
    O   1.0     0.916392     0.336043     0.844275  Biso 1.000000     O
    O   1.0     0.166116     0.834046     0.346649  Biso 1.000000     O
    O   1.0     0.666108     0.834040     0.346653  Biso 1.000000     O
    O   1.0     0.085569     0.171156     0.843927  Biso 1.000000     O
    O   1.0     0.585530     0.171080     0.843847  Biso 1.000000     O
    O   1.0     0.335043     0.669966     0.342039  Biso 1.000000     O
    O   1.0     0.835044     0.669946     0.342021  Biso 1.000000     O
    O   1.0     0.416380     0.170925     0.843830  Biso 1.000000     O
    O   1.0     0.916402     0.170938     0.843842  Biso 1.000000     O
    O   1.0     0.165974     0.669832     0.342049  Biso 1.000000     O
    O   1.0     0.665974     0.669819     0.342026  Biso 1.000000     O
    O   1.0     0.086134     0.336215     0.844228  Biso 1.000000     O
    O   1.0     0.586200     0.336198     0.844266  Biso 1.000000     O
    O   1.0     0.335687     0.834356     0.346404  Biso 1.000000     O
    O   1.0     0.835679     0.834340     0.346407  Biso 1.000000     O
    O   1.0     0.085132     0.671140     0.156094  Biso 1.000000     O
    O   1.0     0.585122     0.671167     0.156080  Biso 1.000000     O
    O   1.0     0.335488     0.169889     0.657982  Biso 1.000000     O
    O   1.0     0.835530     0.169866     0.657991  Biso 1.000000     O
    O   1.0     0.416088     0.835982     0.155555  Biso 1.000000     O
    O   1.0     0.916080     0.835990     0.155549  Biso 1.000000     O
    O   1.0     0.166455     0.333975     0.653318  Biso 1.000000     O
    O   1.0     0.666363     0.333959     0.653296  Biso 1.000000     O
    O   1.0     0.000584     0.753453     0.311692  Biso 1.000000     O
    O   1.0     0.500580     0.753453     0.311700  Biso 1.000000     O
    O   1.0     0.251034     0.254145     0.812204  Biso 1.000000     O
    O   1.0     0.751019     0.254154     0.812238  Biso 1.000000     O
    O   1.0     0.000965     0.253476     0.688246  Biso 1.000000     O
    O   1.0     0.500966     0.253489     0.688215  Biso 1.000000     O
    O   1.0     0.250632     0.754075     0.187742  Biso 1.000000     O
    O   1.0     0.750629     0.754079     0.187739  Biso 1.000000     O
   Al   1.0     0.125683     0.752559     0.249953  Biso 1.000000    Al
   Al   1.0     0.625678     0.752561     0.249957  Biso 1.000000    Al
   Al   1.0     0.375620     0.752553     0.249806  Biso 1.000000    Al
   Al   1.0     0.875615     0.752551     0.249801  Biso 1.000000    Al
   Al   1.0     0.376013     0.252549     0.750108  Biso 1.000000    Al
   Al   1.0     0.875988     0.252544     0.750092  Biso 1.000000    Al
   Al   1.0     0.126061     0.252566     0.750054  Biso 1.000000    Al
   Al   1.0     0.626055     0.252522     0.750058  Biso 1.000000    Al
