#======================================================================

# CRYSTAL DATA

#----------------------------------------------------------------------

data_VESTA_phase_1


_pd_phase_name                         MOF
_cell_length_a                         13.33300
_cell_length_b                         16.28300
_cell_length_c                         13.68300
_cell_angle_alpha                      89.99800
_cell_angle_beta                       90.01300
_cell_angle_gamma                      89.90100
_symmetry_space_group_name_H-M         "P 1"
_symmetry_Int_Tables_number            1

loop_
_symmetry_equiv_pos_as_xyz
   "x, y, z"

loop_
   _atom_site_label
   _atom_site_occupancy
   _atom_site_fract_x
   _atom_site_fract_y
   _atom_site_fract_z
   _atom_site_adp_type
   _atom_site_B_iso_or_equiv
   _atom_site_type_symbol
    H   1.0     0.091167     0.831888     0.458436  Biso 1.000000     H
    H   1.0     0.591071     0.831499     0.457839  Biso 1.000000     H
    H   1.0     0.088696     0.712619     0.575039  Biso 1.000000     H
    H   1.0     0.588567     0.712229     0.574437  Biso 1.000000     H
    H   1.0     0.341220     0.331915     0.958428  Biso 1.000000     H
    H   1.0     0.841014     0.331562     0.957911  Biso 1.000000     H
    H   1.0     0.338729     0.212659     0.075074  Biso 1.000000     H
    H   1.0     0.838527     0.212305     0.074559  Biso 1.000000     H
    H   1.0     0.403329     0.173861     0.461956  Biso 1.000000     H
    H   1.0     0.903472     0.174017     0.461692  Biso 1.000000     H
    H   1.0     0.405649     0.293269     0.578119  Biso 1.000000     H
    H   1.0     0.905800     0.293433     0.577831  Biso 1.000000     H
    H   1.0     0.153468     0.674131     0.961490  Biso 1.000000     H
    H   1.0     0.653305     0.673782     0.962042  Biso 1.000000     H
    H   1.0     0.155809     0.793553     0.077663  Biso 1.000000     H
    H   1.0     0.655626     0.793197     0.078219  Biso 1.000000     H
    H   1.0     0.088713     0.212589     0.412273  Biso 1.000000     H
    H   1.0     0.588591     0.212111     0.412927  Biso 1.000000     H
    H   1.0     0.091160     0.331870     0.528851  Biso 1.000000     H
    H   1.0     0.591049     0.331421     0.529471  Biso 1.000000     H
    H   1.0     0.338695     0.712524     0.912333  Biso 1.000000     H
    H   1.0     0.838567     0.712253     0.912737  Biso 1.000000     H
    H   1.0     0.341141     0.831813     0.028938  Biso 1.000000     H
    H   1.0     0.841036     0.831552     0.029323  Biso 1.000000     H
    H   1.0     0.405701     0.793386     0.409507  Biso 1.000000     H
    H   1.0     0.905795     0.793428     0.409611  Biso 1.000000     H
    H   1.0     0.403365     0.673986     0.525674  Biso 1.000000     H
    H   1.0     0.903430     0.674028     0.525779  Biso 1.000000     H
    H   1.0     0.155823     0.293657     0.909885  Biso 1.000000     H
    H   1.0     0.655630     0.293108     0.909092  Biso 1.000000     H
    H   1.0     0.153480     0.174275     0.026113  Biso 1.000000     H
    H   1.0     0.653274     0.173709     0.025284  Biso 1.000000     H
    H   1.0     0.494386     0.534557     0.622256  Biso 1.000000     H
    H   1.0     0.994377     0.534274     0.622092  Biso 1.000000     H
    H   1.0     0.244451     0.533775     0.865550  Biso 1.000000     H
    H   1.0     0.744421     0.533996     0.865406  Biso 1.000000     H
    H   1.0     0.244404     0.034632     0.122317  Biso 1.000000     H
    H   1.0     0.744386     0.034427     0.122196  Biso 1.000000     H
    H   1.0     0.494460     0.033549     0.365696  Biso 1.000000     H
    H   1.0     0.994425     0.033904     0.365474  Biso 1.000000     H
    C   1.0     0.158850     0.796615     0.473714  Biso 1.000000     C
    C   1.0     0.658787     0.796319     0.473273  Biso 1.000000     C
    C   1.0     0.157537     0.730478     0.537975  Biso 1.000000     C
    C   1.0     0.657457     0.730180     0.537527  Biso 1.000000     C
    C   1.0     0.408873     0.296579     0.973626  Biso 1.000000     C
    C   1.0     0.908755     0.296429     0.973404  Biso 1.000000     C
    C   1.0     0.407547     0.230445     0.037920  Biso 1.000000     C
    C   1.0     0.907428     0.230284     0.037684  Biso 1.000000     C
    C   1.0     0.335372     0.208760     0.477053  Biso 1.000000     C
    C   1.0     0.835461     0.208793     0.476962  Biso 1.000000     C
    C   1.0     0.336819     0.274922     0.541307  Biso 1.000000     C
    C   1.0     0.836901     0.274936     0.541247  Biso 1.000000     C
    C   1.0     0.085463     0.708912     0.976767  Biso 1.000000     C
    C   1.0     0.585355     0.708702     0.977100  Biso 1.000000     C
    C   1.0     0.086913     0.775070     0.041066  Biso 1.000000     C
    C   1.0     0.586792     0.774846     0.041416  Biso 1.000000     C
    C   1.0     0.157531     0.230418     0.449428  Biso 1.000000     C
    C   1.0     0.657475     0.230101     0.449853  Biso 1.000000     C
    C   1.0     0.158843     0.296587     0.513639  Biso 1.000000     C
    C   1.0     0.658779     0.296251     0.514090  Biso 1.000000     C
    C   1.0     0.407519     0.730368     0.949468  Biso 1.000000     C
    C   1.0     0.907456     0.730232     0.949664  Biso 1.000000     C
    C   1.0     0.408820     0.796518     0.013743  Biso 1.000000     C
    C   1.0     0.908770     0.796395     0.013918  Biso 1.000000     C
    C   1.0     0.336852     0.775006     0.446235  Biso 1.000000     C
    C   1.0     0.836896     0.774956     0.446184  Biso 1.000000     C
    C   1.0     0.335403     0.708874     0.510538  Biso 1.000000     C
    C   1.0     0.835430     0.708818     0.510481  Biso 1.000000     C
    C   1.0     0.086923     0.275156     0.946434  Biso 1.000000     C
    C   1.0     0.586805     0.274800     0.945915  Biso 1.000000     C
    C   1.0     0.085459     0.209018     0.010758  Biso 1.000000     C
    C   1.0     0.585341     0.208667     0.010248  Biso 1.000000     C
    C   1.0     0.245744     0.685975     0.556726  Biso 1.000000     C
    C   1.0     0.745717     0.685817     0.556500  Biso 1.000000     C
    C   1.0     0.248525     0.819220     0.427414  Biso 1.000000     C
    C   1.0     0.748526     0.819065     0.427195  Biso 1.000000     C
    C   1.0     0.243666     0.614638     0.625410  Biso 1.000000     C
    C   1.0     0.743646     0.614559     0.625298  Biso 1.000000     C
    C   1.0     0.249903     0.890286     0.358426  Biso 1.000000     C
    C   1.0     0.749916     0.890214     0.358329  Biso 1.000000     C
    C   1.0     0.495720     0.185872     0.056582  Biso 1.000000     C
    C   1.0     0.995710     0.185963     0.056708  Biso 1.000000     C
    C   1.0     0.498521     0.319114     0.927232  Biso 1.000000     C
    C   1.0     0.998503     0.319192     0.927349  Biso 1.000000     C
    C   1.0     0.493656     0.114600     0.125367  Biso 1.000000     C
    C   1.0     0.993642     0.114636     0.125406  Biso 1.000000     C
    C   1.0     0.499913     0.390244     0.858337  Biso 1.000000     C
    C   1.0     0.999898     0.390289     0.858406  Biso 1.000000     C
    C   1.0     0.248497     0.319159     0.560043  Biso 1.000000     C
    C   1.0     0.748520     0.319040     0.560178  Biso 1.000000     C
    C   1.0     0.245741     0.185908     0.430748  Biso 1.000000     C
    C   1.0     0.745755     0.185765     0.430917  Biso 1.000000     C
    C   1.0     0.249904     0.390285     0.628949  Biso 1.000000     C
    C   1.0     0.749913     0.390211     0.629021  Biso 1.000000     C
    C   1.0     0.243678     0.114577     0.362061  Biso 1.000000     C
    C   1.0     0.743698     0.114520     0.362105  Biso 1.000000     C
    C   1.0     0.498480     0.819108     0.060121  Biso 1.000000     C
    C   1.0     0.998502     0.819141     0.060055  Biso 1.000000     C
    C   1.0     0.495720     0.685841     0.930808  Biso 1.000000     C
    C   1.0     0.995725     0.685871     0.930754  Biso 1.000000     C
    C   1.0     0.499890     0.890255     0.128998  Biso 1.000000     C
    C   1.0     0.999905     0.890273     0.128955  Biso 1.000000     C
    C   1.0     0.493674     0.614560     0.862047  Biso 1.000000     C
    C   1.0     0.993658     0.614572     0.862024  Biso 1.000000     C
    O   1.0     0.334145     0.910060     0.321676  Biso 1.000000     O
    O   1.0     0.834159     0.910023     0.321617  Biso 1.000000     O
    O   1.0     0.158081     0.593561     0.658703  Biso 1.000000     O
    O   1.0     0.658067     0.593536     0.658664  Biso 1.000000     O
    O   1.0     0.084165     0.410063     0.821668  Biso 1.000000     O
    O   1.0     0.584152     0.410030     0.821599  Biso 1.000000     O
    O   1.0     0.408077     0.093561     0.158714  Biso 1.000000     O
    O   1.0     0.908061     0.093559     0.158713  Biso 1.000000     O
    O   1.0     0.158084     0.093540     0.328710  Biso 1.000000     O
    O   1.0     0.658103     0.093501     0.328742  Biso 1.000000     O
    O   1.0     0.334172     0.410078     0.665666  Biso 1.000000     O
    O   1.0     0.834184     0.410057     0.665690  Biso 1.000000     O
    O   1.0     0.408080     0.593524     0.828697  Biso 1.000000     O
    O   1.0     0.908064     0.593529     0.828680  Biso 1.000000     O
    O   1.0     0.084198     0.910095     0.165642  Biso 1.000000     O
    O   1.0     0.584173     0.910079     0.165662  Biso 1.000000     O
    O   1.0     0.327207     0.079807     0.342415  Biso 1.000000     O
    O   1.0     0.827227     0.079769     0.342416  Biso 1.000000     O
    O   1.0     0.166784     0.426426     0.645250  Biso 1.000000     O
    O   1.0     0.666798     0.426380     0.645261  Biso 1.000000     O
    O   1.0     0.077204     0.579801     0.842368  Biso 1.000000     O
    O   1.0     0.577202     0.579795     0.842384  Biso 1.000000     O
    O   1.0     0.416778     0.926417     0.145274  Biso 1.000000     O
    O   1.0     0.916785     0.926417     0.145248  Biso 1.000000     O
    O   1.0     0.166783     0.926434     0.342128  Biso 1.000000     O
    O   1.0     0.666800     0.926403     0.342110  Biso 1.000000     O
    O   1.0     0.327185     0.579833     0.645043  Biso 1.000000     O
    O   1.0     0.827171     0.579795     0.644996  Biso 1.000000     O
    O   1.0     0.416801     0.426430     0.842106  Biso 1.000000     O
    O   1.0     0.916779     0.426442     0.842114  Biso 1.000000     O
    O   1.0     0.077190     0.079858     0.145070  Biso 1.000000     O
    O   1.0     0.577177     0.079820     0.145043  Biso 1.000000     O
    O   1.0     0.495728     0.003850     0.304180  Biso 1.000000     O
    O   1.0     0.995715     0.003873     0.304182  Biso 1.000000     O
    O   1.0     0.245724     0.503870     0.804172  Biso 1.000000     O
    O   1.0     0.745707     0.503887     0.804169  Biso 1.000000     O
    O   1.0     0.245718     0.003987     0.183186  Biso 1.000000     O
    O   1.0     0.745708     0.003955     0.183186  Biso 1.000000     O
    O   1.0     0.495706     0.503962     0.683160  Biso 1.000000     O
    O   1.0     0.995696     0.503941     0.683179  Biso 1.000000     O
   Al   1.0     0.371197     0.002194     0.242543  Biso 1.000000    Al
   Al   1.0     0.871198     0.002179     0.242519  Biso 1.000000    Al
   Al   1.0     0.121199     0.502186     0.742522  Biso 1.000000    Al
   Al   1.0     0.621193     0.502173     0.742500  Biso 1.000000    Al
   Al   1.0     0.121207     0.002194     0.244853  Biso 1.000000    Al
   Al   1.0     0.621205     0.002186     0.244859  Biso 1.000000    Al
   Al   1.0     0.371198     0.502187     0.744841  Biso 1.000000    Al
   Al   1.0     0.871184     0.502185     0.744836  Biso 1.000000    Al
