#======================================================================

# CRYSTAL DATA

#----------------------------------------------------------------------

data_VESTA_phase_1


_pd_phase_name                         MOF
_cell_length_a                         17.67000
_cell_length_b                         15.13700
_cell_length_c                         15.41000
_cell_angle_alpha                      90.05600
_cell_angle_beta                       118.98400
_cell_angle_gamma                      89.95400
_symmetry_space_group_name_H-M         "P 1"
_symmetry_Int_Tables_number            1

loop_
_symmetry_equiv_pos_as_xyz
   "x, y, z"

loop_
   _atom_site_label
   _atom_site_occupancy
   _atom_site_fract_x
   _atom_site_fract_y
   _atom_site_fract_z
   _atom_site_adp_type
   _atom_site_B_iso_or_equiv
   _atom_site_type_symbol
    H   1.0     0.165982     0.941397     0.792416  Biso 1.000000     H
    H   1.0     0.284511     0.928488     0.707603  Biso 1.000000     H
    H   1.0     0.405939     0.780665     0.807369  Biso 1.000000     H
    H   1.0     0.363350     0.703364     0.954897  Biso 1.000000     H
    H   1.0     0.214311     0.801944     0.945112  Biso 1.000000     H
    H   1.0     0.000000     0.766069     0.733474  Biso 1.000000     H
    H   1.0     0.098045     0.844164     0.586407  Biso 1.000000     H
    H   1.0     0.247098     0.745333     0.596187  Biso 1.000000     H
    H   1.0     0.295307     0.605721     0.748929  Biso 1.000000     H
    H   1.0     0.177462     0.618966     0.834473  Biso 1.000000     H
    H   1.0     0.365139     0.120071     0.375021  Biso 1.000000     H
    H   1.0     0.349448     0.927005     0.338769  Biso 1.000000     H
    H   1.0     0.524106     0.856920     0.396068  Biso 1.000000     H
    H   1.0     0.647466     0.000000     0.468064  Biso 1.000000     H
    H   1.0     0.549482     0.168934     0.454964  Biso 1.000000     H
    H   1.0     0.335961     0.441041     0.710371  Biso 1.000000     H
    H   1.0     0.217373     0.428785     0.795147  Biso 1.000000     H
    H   1.0     0.095748     0.281115     0.695334  Biso 1.000000     H
    H   1.0     0.138266     0.203285     0.547804  Biso 1.000000     H
    H   1.0     0.287454     0.301360     0.557638  Biso 1.000000     H
    H   1.0     0.446527     0.265460     0.769283  Biso 1.000000     H
    H   1.0     0.403723     0.344089     0.916335  Biso 1.000000     H
    H   1.0     0.254530     0.245780     0.906513  Biso 1.000000     H
    H   1.0     0.206154     0.105942     0.753743  Biso 1.000000     H
    H   1.0     0.324030     0.118552     0.668234  Biso 1.000000     H
    H   1.0     0.136272     0.620544     0.127461  Biso 1.000000     H
    H   1.0     0.152863     0.427530     0.163961  Biso 1.000000     H
    H   1.0     0.978519     0.356792     0.106912  Biso 1.000000     H
    H   1.0     0.854503     0.505654     0.034846  Biso 1.000000     H
    H   1.0    -0.048266     0.668698     0.047612  Biso 1.000000     H
    H   1.0     0.835897     0.062399     0.210274  Biso 1.000000     H
    H   1.0     0.717159     0.075048     0.294823  Biso 1.000000     H
    H   1.0     0.595639     0.222798     0.194981  Biso 1.000000     H
    H   1.0     0.638381     0.300284     0.047665  Biso 1.000000     H
    H   1.0     0.787612     0.201925     0.057668  Biso 1.000000     H
    H   1.0    -0.053413     0.237844     0.269438  Biso 1.000000     H
    H   1.0     0.903531     0.159544     0.416288  Biso 1.000000     H
    H   1.0     0.754296     0.258164     0.406305  Biso 1.000000     H
    H   1.0     0.706121     0.397848     0.253640  Biso 1.000000     H
    H   1.0     0.824165     0.384848     0.168345  Biso 1.000000     H
    H   1.0     0.637217     0.883569     0.627779  Biso 1.000000     H
    H   1.0     0.652909     0.076639     0.664035  Biso 1.000000     H
    H   1.0     0.478248     0.146722     0.606731  Biso 1.000000     H
    H   1.0     0.354892    -0.002611     0.534736  Biso 1.000000     H
    H   1.0     0.452873     0.834711     0.547833  Biso 1.000000     H
    H   1.0     0.665519     0.562623     0.291975  Biso 1.000000     H
    H   1.0     0.784487     0.574910     0.207725  Biso 1.000000     H
    H   1.0     0.906006     0.722609     0.307803  Biso 1.000000     H
    H   1.0     0.863027     0.800424     0.454960  Biso 1.000000     H
    H   1.0     0.713675     0.702305     0.444645  Biso 1.000000     H
    H   1.0     0.554913     0.738180     0.232752  Biso 1.000000     H
    H   1.0     0.598178     0.659558     0.086065  Biso 1.000000     H
    H   1.0     0.747542     0.757906     0.096372  Biso 1.000000     H
    H   1.0     0.795565     0.897751     0.249079  Biso 1.000000     H
    H   1.0     0.677299     0.885114     0.334063  Biso 1.000000     H
    H   1.0     0.865148     0.382888     0.875191  Biso 1.000000     H
    H   1.0     0.848572     0.575890     0.838671  Biso 1.000000     H
    H   1.0     0.022912     0.646634     0.895735  Biso 1.000000     H
    H   1.0     0.146943     0.497791     0.967839  Biso 1.000000     H
    H   1.0     0.000000     0.334727     0.955012  Biso 1.000000     H
    B   1.0     0.188267     0.870894     0.779652  Biso 1.000000     B
    B   1.0     0.259805     0.863216     0.728422  Biso 1.000000     B
    B   1.0     0.332583     0.774908     0.788466  Biso 1.000000     B
    B   1.0     0.306887     0.727993     0.877304  Biso 1.000000     B
    B   1.0     0.217377     0.787285     0.871474  Biso 1.000000     B
    B   1.0     0.128502     0.772292     0.752802  Biso 1.000000     B
    B   1.0     0.154353     0.819277     0.663949  Biso 1.000000     B
    B   1.0     0.243609     0.759864     0.669650  Biso 1.000000     B
    B   1.0     0.272707     0.676193     0.761467  Biso 1.000000     B
    B   1.0     0.201639     0.684238     0.813123  Biso 1.000000     B
    B   1.0     0.420139     0.071874     0.430910  Biso 1.000000     B
    B   1.0     0.410618     0.955980     0.409123  Biso 1.000000     B
    B   1.0     0.515523     0.913872     0.443630  Biso 1.000000     B
    B   1.0     0.590099     0.000000     0.487160  Biso 1.000000     B
    B   1.0     0.531330     0.101450     0.479290  Biso 1.000000     B
    B   1.0     0.313550     0.370658     0.723089  Biso 1.000000     B
    B   1.0     0.241982     0.363378     0.774296  Biso 1.000000     B
    B   1.0     0.169094     0.275162     0.714232  Biso 1.000000     B
    B   1.0     0.194749     0.227921     0.625406  Biso 1.000000     B
    B   1.0     0.284345     0.286913     0.631262  Biso 1.000000     B
    B   1.0     0.373185     0.271911     0.749940  Biso 1.000000     B
    B   1.0     0.347376     0.319226     0.838778  Biso 1.000000     B
    B   1.0     0.258029     0.260122     0.833051  Biso 1.000000     B
    B   1.0     0.228840     0.176308     0.741227  Biso 1.000000     B
    B   1.0     0.299937     0.183965     0.689596  Biso 1.000000     B
    B   1.0     0.081467     0.572103     0.071682  Biso 1.000000     B
    B   1.0     0.091530     0.456236     0.093611  Biso 1.000000     B
    B   1.0     0.986810     0.413735     0.059252  Biso 1.000000     B
    B   1.0     0.911837     0.503566     0.015679  Biso 1.000000     B
    B   1.0    -0.029838     0.601249     0.023356  Biso 1.000000     B
    B   1.0     0.813515     0.132858     0.223015  Biso 1.000000     B
    B   1.0     0.741845     0.140376     0.274083  Biso 1.000000     B
    B   1.0     0.669020     0.228644     0.214003  Biso 1.000000     B
    B   1.0     0.694811     0.275686     0.125295  Biso 1.000000     B
    B   1.0     0.784439     0.216518     0.131254  Biso 1.000000     B
    B   1.0     0.873201     0.231523     0.249996  Biso 1.000000     B
    B   1.0     0.847252     0.184407     0.338714  Biso 1.000000     B
    B   1.0     0.757881     0.243694     0.332890  Biso 1.000000     B
    B   1.0     0.728811     0.327418     0.241124  Biso 1.000000     B
    B   1.0     0.800008     0.319525     0.189625  Biso 1.000000     B
    B   1.0     0.582219     0.931770     0.571893  Biso 1.000000     B
    B   1.0     0.591742     0.047666     0.593679  Biso 1.000000     B
    B   1.0     0.486834     0.089774     0.559169  Biso 1.000000     B
    B   1.0     0.412260    -0.000347     0.515642  Biso 1.000000     B
    B   1.0     0.471029     0.902197     0.523513  Biso 1.000000     B
    B   1.0     0.687979     0.633011     0.279339  Biso 1.000000     B
    B   1.0     0.759775     0.640318     0.228444  Biso 1.000000     B
    B   1.0     0.832598     0.728542     0.288668  Biso 1.000000     B
    B   1.0     0.806674     0.775765     0.377283  Biso 1.000000     B
    B   1.0     0.716982     0.716751     0.371138  Biso 1.000000     B
    B   1.0     0.628313     0.731748     0.252322  Biso 1.000000     B
    B   1.0     0.654393     0.684449     0.163696  Biso 1.000000     B
    B   1.0     0.743841     0.743572     0.169714  Biso 1.000000     B
    B   1.0     0.772824     0.827382     0.261508  Biso 1.000000     B
    B   1.0     0.701496     0.819703     0.312827  Biso 1.000000     B
    B   1.0     0.919957     0.431317     0.930978  Biso 1.000000     B
    B   1.0     0.909903     0.547171     0.909021  Biso 1.000000     B
    B   1.0     0.014622     0.589670     0.943380  Biso 1.000000     B
    B   1.0     0.089600     0.499860     0.986984  Biso 1.000000     B
    B   1.0     0.000000     0.402166     0.979293  Biso 1.000000     B
    C   1.0     0.293511     0.838274     0.850122  Biso 1.000000     C
    C   1.0     0.167512     0.708925     0.690966  Biso 1.000000     C
    C   1.0     0.354311     0.902013     0.929342  Biso 1.000000     C
    C   1.0     0.104420     0.643884     0.614492  Biso 1.000000     C
    C   1.0     0.485380     0.000000     0.395095  Biso 1.000000     C
    C   1.0     0.470256     0.000000     0.290358  Biso 1.000000     C
    C   1.0     0.208251     0.338232     0.652589  Biso 1.000000     C
    C   1.0     0.334054     0.208863     0.811750  Biso 1.000000     C
    C   1.0     0.147518     0.401944     0.573321  Biso 1.000000     C
    C   1.0     0.397017     0.143805     0.888226  Biso 1.000000     C
    C   1.0     0.016546     0.517688     0.107670  Biso 1.000000     C
    C   1.0     0.031718     0.532429     0.212466  Biso 1.000000     C
    C   1.0     0.708264     0.165411     0.152435  Biso 1.000000     C
    C   1.0     0.834001     0.294759     0.311739  Biso 1.000000     C
    C   1.0     0.647589     0.101722     0.073082  Biso 1.000000     C
    C   1.0     0.896931     0.359848     0.388262  Biso 1.000000     C
    C   1.0     0.516985    -0.014041     0.607709  Biso 1.000000     C
    C   1.0     0.532102    -0.028701     0.712449  Biso 1.000000     C
    C   1.0     0.793242     0.665450     0.350093  Biso 1.000000     C
    C   1.0     0.667642     0.794818     0.190728  Biso 1.000000     C
    C   1.0     0.853941     0.601742     0.429397  Biso 1.000000     C
    C   1.0     0.604749     0.859870     0.114160  Biso 1.000000     C
    C   1.0     0.984895     0.485694     0.894980  Biso 1.000000     C
    C   1.0     0.969820     0.470637     0.790265  Biso 1.000000     C
    O   1.0     0.339645     0.922460     0.999038  Biso 1.000000     O
    O   1.0     0.418797     0.933164     0.922617  Biso 1.000000     O
    O   1.0     0.000000     0.607846     0.635689  Biso 1.000000     O
    O   1.0     0.110057     0.629794     0.536690  Biso 1.000000     O
    O   1.0     0.527151     0.073989     0.277826  Biso 1.000000     O
    O   1.0     0.402384     0.000000     0.217581  Biso 1.000000     O
    O   1.0     0.162371     0.422352     0.503799  Biso 1.000000     O
    O   1.0     0.082848     0.433093     0.579783  Biso 1.000000     O
    O   1.0     0.450841     0.107621     0.867049  Biso 1.000000     O
    O   1.0     0.391296     0.129857     0.965973  Biso 1.000000     O
    O   1.0    -0.025197     0.574035     0.225106  Biso 1.000000     O
    O   1.0     0.099618     0.500577     0.285184  Biso 1.000000     O
    O   1.0     0.662459     0.081320     0.003538  Biso 1.000000     O
    O   1.0     0.582935     0.070580     0.079486  Biso 1.000000     O
    O   1.0    -0.049268     0.396009     0.367101  Biso 1.000000     O
    O   1.0     0.891220     0.373861     0.466031  Biso 1.000000     O
    O   1.0     0.475236     0.929618     0.724968  Biso 1.000000     O
    O   1.0     0.599885     0.003276     0.785224  Biso 1.000000     O
    O   1.0     0.839104     0.581362     0.498939  Biso 1.000000     O
    O   1.0     0.918579     0.570557     0.422903  Biso 1.000000     O
    O   1.0     0.550799     0.896039     0.135152  Biso 1.000000     O
    O   1.0     0.610635     0.873860     0.036530  Biso 1.000000     O
    O   1.0     0.000000     0.430042     0.777945  Biso 1.000000     O
    O   1.0     0.901317     0.501193     0.717264  Biso 1.000000     O
   La   1.0     0.461613     0.024218     0.102979  Biso 1.000000    La
   La   1.0     0.040132     0.524039     0.399720  Biso 1.000000    La
   La   1.0     0.540337     0.979590     0.899582  Biso 1.000000    La
   La   1.0     0.961310     0.479607     0.603019  Biso 1.000000    La
