#======================================================================

# CRYSTAL DATA

#----------------------------------------------------------------------

data_VESTA_phase_1


_pd_phase_name                         MOF
_cell_length_a                         13.63700
_cell_length_b                         13.61800
_cell_length_c                         16.92600
_cell_angle_alpha                      90.00200
_cell_angle_beta                       90.00500
_cell_angle_gamma                      117.78100
_symmetry_space_group_name_H-M         "P 1"
_symmetry_Int_Tables_number            1

loop_
_symmetry_equiv_pos_as_xyz
   "x, y, z"

loop_
   _atom_site_label
   _atom_site_occupancy
   _atom_site_fract_x
   _atom_site_fract_y
   _atom_site_fract_z
   _atom_site_adp_type
   _atom_site_B_iso_or_equiv
   _atom_site_type_symbol
    H   1.0     0.324065     0.166078     0.511600  Biso 1.000000     H
    H   1.0     0.508952     0.330623     0.515478  Biso 1.000000     H
    H   1.0     0.344155     0.532555     0.478914  Biso 1.000000     H
    H   1.0     0.167099     0.359120     0.475479  Biso 1.000000     H
    H   1.0     0.945693     0.266349     0.336100  Biso 1.000000     H
    H   1.0     0.849963     0.310687     0.225498  Biso 1.000000     H
    H   1.0     0.698940     0.157715     0.150848  Biso 1.000000     H
    H   1.0     0.740229     0.918311     0.294623  Biso 1.000000     H
    H   1.0     0.493650     0.881776     0.291038  Biso 1.000000     H
    H   1.0     0.390484     0.685113     0.339601  Biso 1.000000     H
    H   1.0     0.548123     0.582823     0.161266  Biso 1.000000     H
    H   1.0     0.651280     0.779328     0.112983  Biso 1.000000     H
    H   1.0     0.310458     0.310427     0.321833  Biso 1.000000     H
    H   1.0     0.127782     0.169034     0.271010  Biso 1.000000     H
    H   1.0     0.027199     0.222879     0.169318  Biso 1.000000     H
    H   1.0     0.288702     0.558473     0.174897  Biso 1.000000     H
    H   1.0     0.675071     0.334149     0.010444  Biso 1.000000     H
    H   1.0     0.490011     0.169688     0.012746  Biso 1.000000     H
    H   1.0     0.655460     0.967411     0.981376  Biso 1.000000     H
    H   1.0     0.832606     0.140772     0.978791  Biso 1.000000     H
    H   1.0     0.052540     0.234160     0.837391  Biso 1.000000     H
    H   1.0     0.146829     0.189515     0.726022  Biso 1.000000     H
    H   1.0     0.297218     0.342277     0.650790  Biso 1.000000     H
    H   1.0     0.259186     0.582157     0.796302  Biso 1.000000     H
    H   1.0     0.506980     0.618198     0.789760  Biso 1.000000     H
    H   1.0     0.611742     0.814923     0.837925  Biso 1.000000     H
    H   1.0     0.449801     0.917281     0.662864  Biso 1.000000     H
    H   1.0     0.345019     0.720693     0.615007  Biso 1.000000     H
    H   1.0     0.691883     0.189430     0.821962  Biso 1.000000     H
    H   1.0     0.874238     0.330443     0.770424  Biso 1.000000     H
    H   1.0     0.973201     0.276420     0.667619  Biso 1.000000     H
    H   1.0     0.710597     0.941334     0.673254  Biso 1.000000     H
    H   1.0     0.675067     0.834149     0.489532  Biso 1.000000     H
    H   1.0     0.490005     0.669687     0.487258  Biso 1.000000     H
    H   1.0     0.655466     0.467399     0.518639  Biso 1.000000     H
    H   1.0     0.832609     0.640775     0.521201  Biso 1.000000     H
    H   1.0     0.052525     0.734145     0.662613  Biso 1.000000     H
    H   1.0     0.146814     0.689513     0.774000  Biso 1.000000     H
    H   1.0     0.297188     0.842286     0.849265  Biso 1.000000     H
    H   1.0     0.259148     0.082135     0.703749  Biso 1.000000     H
    H   1.0     0.506927     0.118132     0.710318  Biso 1.000000     H
    H   1.0     0.611677     0.314832     0.662121  Biso 1.000000     H
    H   1.0     0.449803     0.417288     0.837152  Biso 1.000000     H
    H   1.0     0.345033     0.220726     0.885038  Biso 1.000000     H
    H   1.0     0.691810     0.689358     0.678015  Biso 1.000000     H
    H   1.0     0.874193     0.830391     0.729535  Biso 1.000000     H
    H   1.0     0.973183     0.776416     0.832359  Biso 1.000000     H
    H   1.0     0.710578     0.441318     0.826756  Biso 1.000000     H
    H   1.0     0.324068     0.666090     0.988483  Biso 1.000000     H
    H   1.0     0.508954     0.830632     0.984599  Biso 1.000000     H
    H   1.0     0.344160     0.032560     0.021079  Biso 1.000000     H
    H   1.0     0.167101     0.859139     0.024531  Biso 1.000000     H
    H   1.0     0.945715     0.766366     0.163918  Biso 1.000000     H
    H   1.0     0.849990     0.810710     0.274510  Biso 1.000000     H
    H   1.0     0.698951     0.657744     0.349123  Biso 1.000000     H
    H   1.0     0.740217     0.418317     0.205333  Biso 1.000000     H
    H   1.0     0.493629     0.381745     0.208894  Biso 1.000000     H
    H   1.0     0.390437     0.185058     0.160361  Biso 1.000000     H
    H   1.0     0.548108     0.082843     0.338735  Biso 1.000000     H
    H   1.0     0.651290     0.279372     0.386991  Biso 1.000000     H
    H   1.0     0.310416     0.810380     0.178202  Biso 1.000000     H
    H   1.0     0.127786     0.668987     0.229055  Biso 1.000000     H
    H   1.0     0.027215     0.722865     0.330724  Biso 1.000000     H
    H   1.0     0.288677     0.058467     0.325096  Biso 1.000000     H
    C   1.0     0.333265     0.249426     0.504251  Biso 1.000000     C
    C   1.0     0.436370     0.342722     0.506630  Biso 1.000000     C
    C   1.0     0.445268     0.449242     0.498240  Biso 1.000000     C
    C   1.0     0.345571     0.453982     0.486360  Biso 1.000000     C
    C   1.0     0.245285     0.357166     0.484439  Biso 1.000000     C
    C   1.0     0.904839     0.060889     0.386968  Biso 1.000000     C
    C   1.0     0.847358     0.089847     0.322238  Biso 1.000000     C
    C   1.0     0.878739     0.200654     0.303138  Biso 1.000000     C
    C   1.0     0.825364     0.224859     0.241544  Biso 1.000000     C
    C   1.0     0.741559     0.139707     0.198562  Biso 1.000000     C
    C   1.0     0.711520     0.029350     0.217401  Biso 1.000000     C
    C   1.0     0.763129     0.003826     0.279310  Biso 1.000000     C
    C   1.0     0.577511     0.840638     0.199342  Biso 1.000000     C
    C   1.0     0.505587     0.815868     0.263612  Biso 1.000000     C
    C   1.0     0.448775     0.706851     0.290644  Biso 1.000000     C
    C   1.0     0.464599     0.623792     0.253518  Biso 1.000000     C
    C   1.0     0.535730     0.648381     0.188959  Biso 1.000000     C
    C   1.0     0.592893     0.757616     0.161885  Biso 1.000000     C
    C   1.0     0.310759     0.442362     0.251441  Biso 1.000000     C
    C   1.0     0.265360     0.332672     0.278360  Biso 1.000000     C
    C   1.0     0.163530     0.253777     0.248727  Biso 1.000000     C
    C   1.0     0.107069     0.283425     0.192482  Biso 1.000000     C
    C   1.0     0.152570     0.393502     0.166328  Biso 1.000000     C
    C   1.0     0.255014     0.473451     0.195896  Biso 1.000000     C
    C   1.0     0.092183     0.428001     0.107230  Biso 1.000000     C
    C   1.0     0.665981     0.250732     0.003888  Biso 1.000000     C
    C   1.0     0.562786     0.157493     0.005463  Biso 1.000000     C
    C   1.0     0.554035     0.050906     0.998181  Biso 1.000000     C
    C   1.0     0.653916     0.046047     0.987774  Biso 1.000000     C
    C   1.0     0.754261     0.142819     0.986468  Biso 1.000000     C
    C   1.0     0.094492     0.439476     0.888959  Biso 1.000000     C
    C   1.0     0.151472     0.410618     0.823764  Biso 1.000000     C
    C   1.0     0.119431     0.299771     0.804338  Biso 1.000000     C
    C   1.0     0.171959     0.275390     0.742268  Biso 1.000000     C
    C   1.0     0.255455     0.360414     0.699027  Biso 1.000000     C
    C   1.0     0.286266     0.470845     0.718214  Biso 1.000000     C
    C   1.0     0.235653     0.496560     0.780716  Biso 1.000000     C
    C   1.0     0.420833     0.659350     0.699728  Biso 1.000000     C
    C   1.0     0.494446     0.684119     0.762966  Biso 1.000000     C
    C   1.0     0.552201     0.793204     0.789767  Biso 1.000000     C
    C   1.0     0.535633     0.876314     0.753424  Biso 1.000000     C
    C   1.0     0.462784     0.851701     0.689909  Biso 1.000000     C
    C   1.0     0.404684     0.742411     0.663081  Biso 1.000000     C
    C   1.0     0.690112     0.057511     0.750707  Biso 1.000000     C
    C   1.0     0.736240     0.167112     0.777925  Biso 1.000000     C
    C   1.0     0.837866     0.245791     0.747898  Biso 1.000000     C
    C   1.0     0.893425     0.216030     0.691002  Biso 1.000000     C
    C   1.0     0.847203     0.106062     0.664503  Biso 1.000000     C
    C   1.0     0.744901     0.026307     0.694455  Biso 1.000000     C
    C   1.0     0.906764     0.071473     0.604711  Biso 1.000000     C
    C   1.0     0.665980     0.750735     0.496096  Biso 1.000000     C
    C   1.0     0.562784     0.657495     0.494532  Biso 1.000000     C
    C   1.0     0.554028     0.550900     0.501835  Biso 1.000000     C
    C   1.0     0.653916     0.546045     0.512229  Biso 1.000000     C
    C   1.0     0.754260     0.642818     0.513524  Biso 1.000000     C
    C   1.0     0.094462     0.939460     0.611062  Biso 1.000000     C
    C   1.0     0.151443     0.910605     0.676263  Biso 1.000000     C
    C   1.0     0.119413     0.799761     0.695679  Biso 1.000000     C
    C   1.0     0.171935     0.775386     0.757762  Biso 1.000000     C
    C   1.0     0.255434     0.860416     0.801014  Biso 1.000000     C
    C   1.0     0.286234     0.970843     0.781834  Biso 1.000000     C
    C   1.0     0.235621     0.996552     0.719325  Biso 1.000000     C
    C   1.0     0.420809     0.159336     0.800327  Biso 1.000000     C
    C   1.0     0.494404     0.184070     0.737094  Biso 1.000000     C
    C   1.0     0.552150     0.293139     0.710276  Biso 1.000000     C
    C   1.0     0.535591     0.376268     0.746601  Biso 1.000000     C
    C   1.0     0.462770     0.351692     0.810119  Biso 1.000000     C
    C   1.0     0.404679     0.242417     0.836963  Biso 1.000000     C
    C   1.0     0.690063     0.557474     0.749287  Biso 1.000000     C
    C   1.0     0.736189     0.667059     0.722050  Biso 1.000000     C
    C   1.0     0.837822     0.745752     0.752077  Biso 1.000000     C
    C   1.0     0.893401     0.716013     0.808978  Biso 1.000000     C
    C   1.0     0.847183     0.606059     0.835493  Biso 1.000000     C
    C   1.0     0.744873     0.526293     0.805544  Biso 1.000000     C
    C   1.0     0.906758     0.571492     0.895295  Biso 1.000000     C
    C   1.0     0.333269     0.749442     0.995814  Biso 1.000000     C
    C   1.0     0.436374     0.842737     0.993433  Biso 1.000000     C
    C   1.0     0.445265     0.949249     0.001787  Biso 1.000000     C
    C   1.0     0.345571     0.953995     0.013660  Biso 1.000000     C
    C   1.0     0.245285     0.857181     0.015586  Biso 1.000000     C
    C   1.0     0.904835     0.560904     0.113023  Biso 1.000000     C
    C   1.0     0.847360     0.589865     0.177751  Biso 1.000000     C
    C   1.0     0.878754     0.700673     0.196865  Biso 1.000000     C
    C   1.0     0.825379     0.724881     0.258451  Biso 1.000000     C
    C   1.0     0.741572     0.639733     0.301416  Biso 1.000000     C
    C   1.0     0.711519     0.529373     0.282564  Biso 1.000000     C
    C   1.0     0.763123     0.503846     0.220659  Biso 1.000000     C
    C   1.0     0.577507     0.340648     0.300613  Biso 1.000000     C
    C   1.0     0.505568     0.315849     0.236338  Biso 1.000000     C
    C   1.0     0.448740     0.206817     0.209321  Biso 1.000000     C
    C   1.0     0.464561     0.123770     0.246467  Biso 1.000000     C
    C   1.0     0.535713     0.148389     0.311028  Biso 1.000000     C
    C   1.0     0.592890     0.257638     0.338086  Biso 1.000000     C
    C   1.0     0.310724     0.942342     0.248573  Biso 1.000000     C
    C   1.0     0.265339     0.832634     0.221681  Biso 1.000000     C
    C   1.0     0.163520     0.753745     0.251315  Biso 1.000000     C
    C   1.0     0.107075     0.783406     0.307558  Biso 1.000000     C
    C   1.0     0.152563     0.893500     0.333687  Biso 1.000000     C
    C   1.0     0.254994     0.973444     0.304116  Biso 1.000000     C
    C   1.0     0.092180     0.928016     0.392769  Biso 1.000000     C
    N   1.0     0.238322     0.255806     0.493759  Biso 1.000000     N
    N   1.0     0.761100     0.244213    -0.004925  Biso 1.000000     N
    N   1.0     0.761102     0.744220     0.504911  Biso 1.000000     N
    N   1.0     0.238327     0.755828     0.000000  Biso 1.000000     N
    O   1.0     0.995817     0.138305     0.412733  Biso 1.000000     O
    O   1.0     0.858243     0.960244     0.410390  Biso 1.000000     O
    O   1.0     0.631789     0.948194     0.169592  Biso 1.000000     O
    O   1.0     0.412517     0.516233     0.283943  Biso 1.000000     O
    O   1.0     0.139081     0.529963     0.086619  Biso 1.000000     O
    O   1.0    -0.001154     0.353413     0.082588  Biso 1.000000     O
    O   1.0     0.002437     0.362565     0.913626  Biso 1.000000     O
    O   1.0     0.142450     0.539442     0.913784  Biso 1.000000     O
    O   1.0     0.365655     0.551766     0.670060  Biso 1.000000     O
    O   1.0     0.588570     0.983955     0.783661  Biso 1.000000     O
    O   1.0     0.858593     0.969963     0.583072  Biso 1.000000     O
    O   1.0     0.000000     0.145521     0.580572  Biso 1.000000     O
    O   1.0     0.002411     0.862544     0.586377  Biso 1.000000     O
    O   1.0     0.142441     0.039402     0.586227  Biso 1.000000     O
    O   1.0     0.365629     0.051762     0.829994  Biso 1.000000     O
    O   1.0     0.588511     0.483890     0.716343  Biso 1.000000     O
    O   1.0     0.858608     0.469970     0.916923  Biso 1.000000     O
    O   1.0     0.000000     0.645542     0.919425  Biso 1.000000     O
    O   1.0     0.995812     0.638316     0.087271  Biso 1.000000     O
    O   1.0     0.858250     0.460241     0.089602  Biso 1.000000     O
    O   1.0     0.631792     0.448213     0.330363  Biso 1.000000     O
    O   1.0     0.412462     0.016198     0.216053  Biso 1.000000     O
    O   1.0     0.139099     0.029964     0.413394  Biso 1.000000     O
    O   1.0    -0.001136     0.853426     0.417425  Biso 1.000000     O
   Zn   1.0     0.089242     0.109630     0.496796  Biso 1.000000    Zn
   Zn   1.0     0.910172     0.390295    -0.000397  Biso 1.000000    Zn
   Zn   1.0     0.910169     0.890303     0.500392  Biso 1.000000    Zn
   Zn   1.0     0.089244     0.609654     0.000000  Biso 1.000000    Zn
