#======================================================================

# CRYSTAL DATA

#----------------------------------------------------------------------

data_VESTA_phase_1


_pd_phase_name                         MOF
_cell_length_a                         15.37700
_cell_length_b                         15.40200
_cell_length_c                         20.17600
_cell_angle_alpha                      72.55000
_cell_angle_beta                       72.93100
_cell_angle_gamma                      102.91200
_symmetry_space_group_name_H-M         "P 1"
_symmetry_Int_Tables_number            1

loop_
_symmetry_equiv_pos_as_xyz
   "x, y, z"

loop_
   _atom_site_label
   _atom_site_occupancy
   _atom_site_fract_x
   _atom_site_fract_y
   _atom_site_fract_z
   _atom_site_adp_type
   _atom_site_B_iso_or_equiv
   _atom_site_type_symbol
    H   1.0     0.411753     0.544205     0.072732  Biso 1.000000     H
    H   1.0     0.436109     0.547730     0.943884  Biso 1.000000     H
    H   1.0     0.296974     0.490801     0.912594  Biso 1.000000     H
    H   1.0     0.102470     0.421874     0.139853  Biso 1.000000     H
    H   1.0     0.024505     0.376859     0.868146  Biso 1.000000     H
    H   1.0     0.872495     0.311858     0.850512  Biso 1.000000     H
    H   1.0     0.704472     0.274220     0.076710  Biso 1.000000     H
    H   1.0     0.855895     0.334767     0.095091  Biso 1.000000     H
    H   1.0     0.515947     0.884653     0.071403  Biso 1.000000     H
    H   1.0     0.621563     0.009271     0.942304  Biso 1.000000     H
    H   1.0     0.791932     0.096572     0.911782  Biso 1.000000     H
    H   1.0     0.756742     0.938737     0.140436  Biso 1.000000     H
    H   1.0     0.107154     0.254768     0.868141  Biso 1.000000     H
    H   1.0     0.277085     0.337023     0.850100  Biso 1.000000     H
    H   1.0     0.219404     0.148396     0.076918  Biso 1.000000     H
    H   1.0     0.049415     0.069818     0.095643  Biso 1.000000     H
    H   1.0     0.455234     0.588842     0.427948  Biso 1.000000     H
    H   1.0     0.452079     0.564754     0.556770  Biso 1.000000     H
    H   1.0     0.509655     0.704157     0.587245  Biso 1.000000     H
    H   1.0     0.578533     0.898290     0.359202  Biso 1.000000     H
    H   1.0     0.623705     0.975283     0.631003  Biso 1.000000     H
    H   1.0     0.688017     0.126806     0.649059  Biso 1.000000     H
    H   1.0     0.725674     0.296385     0.422480  Biso 1.000000     H
    H   1.0     0.665745     0.145417     0.403725  Biso 1.000000     H
    H   1.0     0.114815     0.484158     0.427807  Biso 1.000000     H
    H   1.0     0.990026     0.378097     0.556774  Biso 1.000000     H
    H   1.0     0.903018     0.207726     0.587393  Biso 1.000000     H
    H   1.0     0.061199     0.243697     0.359243  Biso 1.000000     H
    H   1.0     0.746647     0.892650     0.631243  Biso 1.000000     H
    H   1.0     0.664315     0.722661     0.649722  Biso 1.000000     H
    H   1.0     0.851262     0.780973     0.423001  Biso 1.000000     H
    H   1.0     0.929917     0.950987     0.403822  Biso 1.000000     H
    H   1.0     0.588191     0.455898     0.927210  Biso 1.000000     H
    H   1.0     0.563918     0.452447     0.056034  Biso 1.000000     H
    H   1.0     0.703109     0.509325     0.087279  Biso 1.000000     H
    H   1.0     0.897500     0.578081     0.860021  Biso 1.000000     H
    H   1.0     0.975426     0.623378     0.131648  Biso 1.000000     H
    H   1.0     0.127377     0.688432     0.149360  Biso 1.000000     H
    H   1.0     0.295597     0.725742     0.923309  Biso 1.000000     H
    H   1.0     0.144254     0.665162     0.904841  Biso 1.000000     H
    H   1.0     0.483740     0.115656     0.928600  Biso 1.000000     H
    H   1.0     0.378228     0.991012     0.057708  Biso 1.000000     H
    H   1.0     0.207914     0.903480     0.088251  Biso 1.000000     H
    H   1.0     0.242973     0.061113     0.859590  Biso 1.000000     H
    H   1.0     0.892669     0.745105     0.131765  Biso 1.000000     H
    H   1.0     0.722733     0.662922     0.149780  Biso 1.000000     H
    H   1.0     0.780444     0.851752     0.923010  Biso 1.000000     H
    H   1.0     0.950444     0.930245     0.904306  Biso 1.000000     H
    H   1.0     0.544596     0.411252     0.572022  Biso 1.000000     H
    H   1.0     0.547962     0.435367     0.443149  Biso 1.000000     H
    H   1.0     0.490489     0.295980     0.412625  Biso 1.000000     H
    H   1.0     0.421320     0.101810     0.640718  Biso 1.000000     H
    H   1.0     0.376265     0.024547     0.368963  Biso 1.000000     H
    H   1.0     0.311911     0.872890     0.351116  Biso 1.000000     H
    H   1.0     0.274399     0.703707     0.577755  Biso 1.000000     H
    H   1.0     0.334419     0.854835     0.596286  Biso 1.000000     H
    H   1.0     0.885142     0.515723     0.572162  Biso 1.000000     H
    H   1.0     0.009948     0.621794     0.443211  Biso 1.000000     H
    H   1.0     0.096931     0.792177     0.412600  Biso 1.000000     H
    H   1.0     0.938620     0.756207     0.640718  Biso 1.000000     H
    H   1.0     0.253245     0.107287     0.368472  Biso 1.000000     H
    H   1.0     0.335615     0.277308     0.349907  Biso 1.000000     H
    H   1.0     0.149028     0.219060     0.576710  Biso 1.000000     H
    H   1.0     0.070340     0.049014     0.595980  Biso 1.000000     H
    B   1.0     0.224127     0.776730     0.251379  Biso 1.000000     B
    B   1.0     0.523220     0.476044     0.249233  Biso 1.000000     B
    B   1.0     0.776784     0.224195     0.748614  Biso 1.000000     B
    B   1.0     0.476771     0.523978     0.750779  Biso 1.000000     B
    C   1.0     0.239949     0.481312     0.189214  Biso 1.000000     C
    C   1.0     0.255368     0.483046     0.114227  Biso 1.000000     C
    C   1.0     0.349926     0.519315     0.058886  Biso 1.000000     C
    C   1.0     0.363296     0.521247     0.987000  Biso 1.000000     C
    C   1.0     0.284468     0.488479     0.969219  Biso 1.000000     C
    C   1.0     0.189380     0.452005     0.024396  Biso 1.000000     C
    C   1.0     0.175609     0.449049     0.097258  Biso 1.000000     C
    C   1.0     0.107838     0.419891     0.007504  Biso 1.000000     C
    C   1.0     0.035866     0.392660     0.994796  Biso 1.000000     C
    C   1.0     0.950493     0.359113     0.983067  Biso 1.000000     C
    C   1.0     0.954241     0.353674     0.913618  Biso 1.000000     C
    C   1.0     0.870104     0.318645     0.903222  Biso 1.000000     C
    C   1.0     0.779651     0.289596     0.962463  Biso 1.000000     C
    C   1.0     0.693158     0.257087     0.951570  Biso 1.000000     C
    C   1.0     0.774719     0.295555     0.031735  Biso 1.000000     C
    C   1.0     0.859156     0.329503     0.041852  Biso 1.000000     C
    C   1.0     0.569709     0.831017     0.189082  Biso 1.000000     C
    C   1.0     0.630055     0.903821     0.113906  Biso 1.000000     C
    C   1.0     0.591557     0.923013     0.057948  Biso 1.000000     C
    C   1.0     0.650729     0.992528     0.985887  Biso 1.000000     C
    C   1.0     0.747292     0.042518     0.968533  Biso 1.000000     C
    C   1.0     0.786489     0.023710     0.024322  Biso 1.000000     C
    C   1.0     0.726763     0.954238     0.097351  Biso 1.000000     C
    C   1.0     0.884840     0.072372     0.007791  Biso 1.000000     C
    C   1.0     0.969464     0.112291     0.995145  Biso 1.000000     C
    C   1.0     0.066570     0.157544     0.983337  Biso 1.000000     C
    C   1.0     0.132129     0.232432     0.913651  Biso 1.000000     C
    C   1.0     0.226775     0.277666     0.903056  Biso 1.000000     C
    C   1.0     0.258216     0.247277     0.962348  Biso 1.000000     C
    C   1.0     0.355765     0.290169     0.951222  Biso 1.000000     C
    C   1.0     0.193965     0.172158     0.031896  Biso 1.000000     C
    C   1.0     0.099307     0.128288     0.042205  Biso 1.000000     C
    C   1.0     0.518749     0.760484     0.310570  Biso 1.000000     C
    C   1.0     0.516957     0.745292     0.385611  Biso 1.000000     C
    C   1.0     0.480463     0.650775     0.441417  Biso 1.000000     C
    C   1.0     0.478663     0.637546     0.513319  Biso 1.000000     C
    C   1.0     0.511718     0.716499     0.530657  Biso 1.000000     C
    C   1.0     0.548337     0.811546     0.475023  Biso 1.000000     C
    C   1.0     0.551200     0.825176     0.402153  Biso 1.000000     C
    C   1.0     0.580669     0.893129     0.491554  Biso 1.000000     C
    C   1.0     0.607982     0.965015     0.504127  Biso 1.000000     C
    C   1.0     0.641388     0.050113     0.515934  Biso 1.000000     C
    C   1.0     0.646710     0.045769     0.585568  Biso 1.000000     C
    C   1.0     0.681355     0.129639     0.596185  Biso 1.000000     C
    C   1.0     0.710173     0.220395     0.536960  Biso 1.000000     C
    C   1.0     0.742167     0.306611     0.548091  Biso 1.000000     C
    C   1.0     0.704455     0.225908     0.467453  Biso 1.000000     C
    C   1.0     0.670862     0.141736     0.457126  Biso 1.000000     C
    C   1.0     0.168871     0.430619     0.310553  Biso 1.000000     C
    C   1.0     0.095886     0.370232     0.385567  Biso 1.000000     C
    C   1.0     0.076531     0.408534     0.441343  Biso 1.000000     C
    C   1.0     0.006950     0.349153     0.513303  Biso 1.000000     C
    C   1.0     0.957058     0.252566     0.530716  Biso 1.000000     C
    C   1.0     0.976024     0.213589     0.475080  Biso 1.000000     C
    C   1.0     0.045556     0.273535     0.402172  Biso 1.000000     C
    C   1.0     0.927611     0.115241     0.491599  Biso 1.000000     C
    C   1.0     0.888091     0.030643     0.504082  Biso 1.000000     C
    C   1.0     0.843006     0.933544     0.516056  Biso 1.000000     C
    C   1.0     0.768622     0.867789     0.585861  Biso 1.000000     C
    C   1.0     0.723384     0.773117     0.596725  Biso 1.000000     C
    C   1.0     0.753190     0.741813     0.537592  Biso 1.000000     C
    C   1.0     0.709995     0.644238     0.549051  Biso 1.000000     C
    C   1.0     0.827877     0.806258     0.467922  Biso 1.000000     C
    C   1.0     0.871798     0.900952     0.457351  Biso 1.000000     C
    C   1.0     0.759971     0.518620     0.810727  Biso 1.000000     C
    C   1.0     0.744582     0.516973     0.885689  Biso 1.000000     C
    C   1.0     0.650040     0.480774     0.941038  Biso 1.000000     C
    C   1.0     0.636718     0.478887     0.012908  Biso 1.000000     C
    C   1.0     0.715578     0.511630     0.030663  Biso 1.000000     C
    C   1.0     0.810653     0.548053     0.975470  Biso 1.000000     C
    C   1.0     0.824375     0.550962     0.902626  Biso 1.000000     C
    C   1.0     0.892224     0.580163     0.992334  Biso 1.000000     C
    C   1.0     0.964206     0.607403     0.005028  Biso 1.000000     C
    C   1.0     0.049549     0.640967     0.016789  Biso 1.000000     C
    C   1.0     0.045721     0.646505     0.086226  Biso 1.000000     C
    C   1.0     0.129814     0.681559     0.096667  Biso 1.000000     C
    C   1.0     0.220308     0.710524     0.037493  Biso 1.000000     C
    C   1.0     0.306728     0.743013     0.048484  Biso 1.000000     C
    C   1.0     0.225323     0.704472     0.968234  Biso 1.000000     C
    C   1.0     0.140927     0.670505     0.958068  Biso 1.000000     C
    C   1.0     0.429939     0.169084     0.810908  Biso 1.000000     C
    C   1.0     0.369652     0.096249     0.886090  Biso 1.000000     C
    C   1.0     0.408162     0.077179     0.942050  Biso 1.000000     C
    C   1.0     0.349051     0.007652     0.014122  Biso 1.000000     C
    C   1.0     0.252516     0.957536     0.031492  Biso 1.000000     C
    C   1.0     0.213301     0.976236     0.975707  Biso 1.000000     C
    C   1.0     0.272978     0.045706     0.902664  Biso 1.000000     C
    C   1.0     0.114969     0.927520     0.992232  Biso 1.000000     C
    C   1.0     0.030363     0.887631     0.004818  Biso 1.000000     C
    C   1.0     0.933266     0.842414     0.016593  Biso 1.000000     C
    C   1.0     0.867699     0.767495     0.086259  Biso 1.000000     C
    C   1.0     0.773050     0.722305     0.096841  Biso 1.000000     C
    C   1.0     0.741621     0.752780     0.037555  Biso 1.000000     C
    C   1.0     0.644060     0.709932     0.048693  Biso 1.000000     C
    C   1.0     0.805880     0.827926     0.968025  Biso 1.000000     C
    C   1.0     0.900544     0.871749     0.957727  Biso 1.000000     C
    C   1.0     0.480963     0.239609     0.689413  Biso 1.000000     C
    C   1.0     0.482872     0.254801     0.614343  Biso 1.000000     C
    C   1.0     0.519421     0.349324     0.558534  Biso 1.000000     C
    C   1.0     0.521344     0.362570     0.486599  Biso 1.000000     C
    C   1.0     0.488352     0.283628     0.469232  Biso 1.000000     C
    C   1.0     0.451683     0.188577     0.524867  Biso 1.000000     C
    C   1.0     0.448701     0.174929     0.597768  Biso 1.000000     C
    C   1.0     0.419395     0.107002     0.508318  Biso 1.000000     C
    C   1.0     0.392097     0.035104     0.495756  Biso 1.000000     C
    C   1.0     0.358674     0.949935     0.484043  Biso 1.000000     C
    C   1.0     0.353287     0.954119     0.414458  Biso 1.000000     C
    C   1.0     0.318604     0.870161     0.403961  Biso 1.000000     C
    C   1.0     0.289803     0.779481     0.463266  Biso 1.000000     C
    C   1.0     0.257749     0.693160     0.452285  Biso 1.000000     C
    C   1.0     0.295597     0.774129     0.532724  Biso 1.000000     C
    C   1.0     0.329236     0.858386     0.542927  Biso 1.000000     C
    C   1.0     0.831028     0.569248     0.689394  Biso 1.000000     C
    C   1.0     0.903989     0.629670     0.614381  Biso 1.000000     C
    C   1.0     0.923389     0.591360     0.558615  Biso 1.000000     C
    C   1.0     0.992989     0.650752     0.486669  Biso 1.000000     C
    C   1.0     0.042864     0.747339     0.469264  Biso 1.000000     C
    C   1.0     0.023857     0.786323     0.524892  Biso 1.000000     C
    C   1.0     0.954294     0.726375     0.597787  Biso 1.000000     C
    C   1.0     0.072304     0.884678     0.508343  Biso 1.000000     C
    C   1.0     0.111918     0.969297     0.495754  Biso 1.000000     C
    C   1.0     0.157055     0.066418     0.483709  Biso 1.000000     C
    C   1.0     0.231352     0.132165     0.413855  Biso 1.000000     C
    C   1.0     0.276611     0.226858     0.402941  Biso 1.000000     C
    C   1.0     0.246920     0.258194     0.462071  Biso 1.000000     C
    C   1.0     0.290122     0.355770     0.450607  Biso 1.000000     C
    C   1.0     0.172323     0.193755     0.531789  Biso 1.000000     C
    C   1.0     0.128382     0.099044     0.542410  Biso 1.000000     C
    N   1.0     0.291558     0.538459     0.210893  Biso 1.000000     N
    N   1.0     0.621706     0.232796     0.941872  Biso 1.000000     N
    N   1.0     0.495497     0.752873     0.210917  Biso 1.000000     N
    N   1.0     0.437038     0.323559     0.941393  Biso 1.000000     N
    N   1.0     0.461749     0.708584     0.288959  Biso 1.000000     N
    N   1.0     0.766032     0.377834     0.557964  Biso 1.000000     N
    N   1.0     0.246882     0.504947     0.288847  Biso 1.000000     N
    N   1.0     0.676211     0.562972     0.559194  Biso 1.000000     N
    N   1.0     0.708404     0.461375     0.789093  Biso 1.000000     N
    N   1.0     0.378090     0.767266     0.058308  Biso 1.000000     N
    N   1.0     0.504051     0.247299     0.789102  Biso 1.000000     N
    N   1.0     0.562770     0.676554     0.058564  Biso 1.000000     N
    N   1.0     0.537856     0.291572     0.711059  Biso 1.000000     N
    N   1.0     0.233842     0.621840     0.442547  Biso 1.000000     N
    N   1.0     0.753069     0.494833     0.711140  Biso 1.000000     N
    N   1.0     0.323870     0.437019     0.440524  Biso 1.000000     N
    O   1.0     0.160708     0.411714     0.249888  Biso 1.000000     O
    O   1.0     0.588452     0.839591     0.249755  Biso 1.000000     O
    O   1.0     0.839153     0.588249     0.750028  Biso 1.000000     O
    O   1.0     0.411291     0.160451     0.750211  Biso 1.000000     O
    F   1.0     0.188844     0.674547     0.291573  Biso 1.000000     F
    F   1.0     0.199655     0.822538     0.302703  Biso 1.000000     F
    F   1.0     0.326349     0.811018     0.213667  Biso 1.000000     F
    F   1.0     0.181057     0.799935     0.197551  Biso 1.000000     F
    F   1.0     0.522250     0.544371     0.283409  Biso 1.000000     F
    F   1.0     0.492709     0.381012     0.305587  Biso 1.000000     F
    F   1.0     0.459171     0.477799     0.210823  Biso 1.000000     F
    F   1.0     0.619333     0.500006     0.197218  Biso 1.000000     F
    F   1.0     0.814738     0.326200     0.708118  Biso 1.000000     F
    F   1.0     0.799912     0.177532     0.697652  Biso 1.000000     F
    F   1.0     0.674472     0.192598     0.785986  Biso 1.000000     F
    F   1.0     0.819018     0.199678     0.802794  Biso 1.000000     F
    F   1.0     0.477741     0.455653     0.716599  Biso 1.000000     F
    F   1.0     0.507283     0.619008     0.694421  Biso 1.000000     F
    F   1.0     0.540821     0.522216     0.789186  Biso 1.000000     F
    F   1.0     0.380659     0.500009     0.802790  Biso 1.000000     F
   Ag   1.0     0.425751     0.676233     0.148357  Biso 1.000000    Ag
   Ag   1.0     0.322569     0.575437     0.351832  Biso 1.000000    Ag
   Ag   1.0     0.574078     0.323685     0.851719  Biso 1.000000    Ag
   Ag   1.0     0.677081     0.424610     0.648251  Biso 1.000000    Ag
